                   ****************************************
                     MINI-NUMERICAL ELECTROMAGNETICS CODE
                                   MININEC
                   ****************************************

FREQUENCY (MHZ): 148
    WAVE LENGTH =  2.025676  METERS

ENVIRONMENT (+1 FOR FREE SPACE, -1 FOR GROUND PLANE): +1

NO. OF GEO-OBJECTS: 12

WIRE NO. 1
            COORDINATES                                 END         NO. OF
   X             Y             Z          RADIUS     CONNECTION     SEGMENTS
-.51943        0             0                          0
 .51943        0             0             .00238       0             22

WIRE NO. 2
            COORDINATES                                 END         NO. OF
   X             Y             Z          RADIUS     CONNECTION     SEGMENTS
-.50165        .22331        0                          0
 .50165        .22331        0             .00238       0             22

WIRE NO. 3
            COORDINATES                                 END         NO. OF
   X             Y             Z          RADIUS     CONNECTION     SEGMENTS
-.46991        .34215        0                          0
 .46991        .34215        0             .00238       0             22

WIRE NO. 4
            COORDINATES                                 END         NO. OF
   X             Y             Z          RADIUS     CONNECTION     SEGMENTS
-.46136        .64461        0                          0
 .46136        .64461        0             .00238       0             22

WIRE NO. 5
            COORDINATES                                 END         NO. OF
   X             Y             Z          RADIUS     CONNECTION     SEGMENTS
-.46224        1.03434       0                          0
 .46224        1.03434       0             .00238       0             22

WIRE NO. 6
            COORDINATES                                 END         NO. OF
   X             Y             Z          RADIUS     CONNECTION     SEGMENTS
-.45989        1.55909       0                          0
 .45989        1.55909       0             .00238       0             22

WIRE NO. 7
            COORDINATES                                 END         NO. OF
   X             Y             Z          RADIUS     CONNECTION     SEGMENTS
-.44704        2.19682       0                          0
 .44704        2.19682       0             .00238       0             22

WIRE NO. 8
            COORDINATES                                 END         NO. OF
   X             Y             Z          RADIUS     CONNECTION     SEGMENTS
-.43561        2.9464        0                          0
 .43561        2.9464        0             .00238       0             22

WIRE NO. 9
            COORDINATES                                 END         NO. OF
   X             Y             Z          RADIUS     CONNECTION     SEGMENTS
-.42672        3.72364       0                          0
 .42672        3.72364       0             .00238       0             22

WIRE NO. 10
            COORDINATES                                 END         NO. OF
   X             Y             Z          RADIUS     CONNECTION     SEGMENTS
-.41783        4.53136       0                          0
 .41783        4.53136       0             .00238       0             22

WIRE NO. 11
            COORDINATES                                 END         NO. OF
   X             Y             Z          RADIUS     CONNECTION     SEGMENTS
-.40894        5.334         0                          0
 .40894        5.334         0             .00238       0             22

WIRE NO. 12
            COORDINATES                                 END         NO. OF
   X             Y             Z          RADIUS     CONNECTION     SEGMENTS
-.39624        6.0452        0                          0
 .39624        6.0452        0             .00238       0             22

                  **** ANTENNA GEOMETRY ****

WIRE NO.  1 COORDINATES                                 CONNECTION PULSE
X             Y             Z             RADIUS        END1 END2  NO.
-.472209       0             0             .00238        0    1   1
-.424988       0             0             .00238        1    1   2
-.377767       0             0             .00238        1    1   3
-.330546       0             0             .00238        1    1   4
-.283325       0             0             .00238        1    1   5
-.236105       0             0             .00238        1    1   6
-.188884       0             0             .00238        1    1   7
-.141663       0             0             .00238        1    1   8
-.094441       0             0             .00238        1    1   9
-.04722        0             0             .00238        1    1  10
 0             0             0             .00238        1    1  11
 .04722        0             0             .00238        1    1  12
 .094441       0             0             .00238        1    1  13
 .141663       0             0             .00238        1    1  14
 .188884       0             0             .00238        1    1  15
 .236105       0             0             .00238        1    1  16
 .283325       0             0             .00238        1    1  17
 .330546       0             0             .00238        1    1  18
 .377767       0             0             .00238        1    1  19
 .424988       0             0             .00238        1    1  20
 .472209       0             0             .00238        1    0  21

WIRE NO.  2 COORDINATES                                 CONNECTION PULSE
X             Y             Z             RADIUS        END1 END2  NO.
-.456045       .22331        0             .00238        0    2  22
-.410441       .22331        0             .00238        2    2  23
-.364836       .22331        0             .00238        2    2  24
-.319232       .22331        0             .00238        2    2  25
-.273627       .22331        0             .00238        2    2  26
-.228023       .22331        0             .00238        2    2  27
-.182418       .22331        0             .00238        2    2  28
-.136814       .22331        0             .00238        2    2  29
-.091209       .22331        0             .00238        2    2  30
-.045604       .22331        0             .00238        2    2  31
 0             .22331        0             .00238        2    2  32
 .045604       .22331        0             .00238        2    2  33
 .091209       .22331        0             .00238        2    2  34
 .136814       .22331        0             .00238        2    2  35
 .182418       .22331        0             .00238        2    2  36
 .228023       .22331        0             .00238        2    2  37
 .273627       .22331        0             .00238        2    2  38
 .319232       .22331        0             .00238        2    2  39
 .364836       .22331        0             .00238        2    2  40
 .410441       .22331        0             .00238        2    2  41
 .456045       .22331        0             .00238        2    0  42

WIRE NO.  3 COORDINATES                                 CONNECTION PULSE
X             Y             Z             RADIUS        END1 END2  NO.
-.427191       .34215        0             .00238        0    3  43
-.384472       .34215        0             .00238        3    3  44
-.341753       .34215        0             .00238        3    3  45
-.299034       .34215        0             .00238        3    3  46
-.256315       .34215        0             .00238        3    3  47
-.213595       .34215        0             .00238        3    3  48
-.170876       .34215        0             .00238        3    3  49
-.128157       .34215        0             .00238        3    3  50
-.085438       .34215        0             .00238        3    3  51
-.042719       .34215        0             .00238        3    3  52
 0             .34215        0             .00238        3    3  53
 .042719       .34215        0             .00238        3    3  54
 .085438       .34215        0             .00238        3    3  55
 .128157       .34215        0             .00238        3    3  56
 .170876       .34215        0             .00238        3    3  57
 .213595       .34215        0             .00238        3    3  58
 .256315       .34215        0             .00238        3    3  59
 .299034       .34215        0             .00238        3    3  60
 .341753       .34215        0             .00238        3    3  61
 .384472       .34215        0             .00238        3    3  62
 .427191       .34215        0             .00238        3    0  63

WIRE NO.  4 COORDINATES                                 CONNECTION PULSE
X             Y             Z             RADIUS        END1 END2  NO.
-.419418       .64461        0             .00238        0    4  64
-.377476       .64461        0             .00238        4    4  65
-.335535       .64461        0             .00238        4    4  66
-.293593       .64461        0             .00238        4    4  67
-.251651       .64461        0             .00238        4    4  68
-.209709       .64461        0             .00238        4    4  69
-.167767       .64461        0             .00238        4    4  70
-.125825       .64461        0             .00238        4    4  71
-.083883       .64461        0             .00238        4    4  72
-.041941       .64461        0             .00238        4    4  73
 0             .64461        0             .00238        4    4  74
 .041941       .64461        0             .00238        4    4  75
 .083883       .64461        0             .00238        4    4  76
 .125825       .64461        0             .00238        4    4  77
 .167767       .64461        0             .00238        4    4  78
 .209709       .64461        0             .00238        4    4  79
 .251651       .64461        0             .00238        4    4  80
 .293593       .64461        0             .00238        4    4  81
 .335535       .64461        0             .00238        4    4  82
 .377476       .64461        0             .00238        4    4  83
 .419418       .64461        0             .00238        4    0  84

WIRE NO.  5 COORDINATES                                 CONNECTION PULSE
X             Y             Z             RADIUS        END1 END2  NO.
-.420218       1.03434       0             .00238        0    5  85
-.378196       1.03434       0             .00238        5    5  86
-.336175       1.03434       0             .00238        5    5  87
-.294153       1.03434       0             .00238        5    5  88
-.252131       1.03434       0             .00238        5    5  89
-.210109       1.03434       0             .00238        5    5  90
-.168087       1.03434       0             .00238        5    5  91
-.126065       1.03434       0             .00238        5    5  92
-.084043       1.03434       0             .00238        5    5  93
-.042021       1.03434       0             .00238        5    5  94
 0             1.03434       0             .00238        5    5  95
 .042021       1.03434       0             .00238        5    5  96
 .084043       1.03434       0             .00238        5    5  97
 .126065       1.03434       0             .00238        5    5  98
 .168087       1.03434       0             .00238        5    5  99
 .210109       1.03434       0             .00238        5    5 100
 .252131       1.03434       0             .00238        5    5 101
 .294153       1.03434       0             .00238        5    5 102
 .336175       1.03434       0             .00238        5    5 103
 .378196       1.03434       0             .00238        5    5 104
 .420218       1.03434       0             .00238        5    0 105

WIRE NO.  6 COORDINATES                                 CONNECTION PULSE
X             Y             Z             RADIUS        END1 END2  NO.
-.418082       1.55909       0             .00238        0    6 106
-.376274       1.55909       0             .00238        6    6 107
-.334465       1.55909       0             .00238        6    6 108
-.292657       1.55909       0             .00238        6    6 109
-.250849       1.55909       0             .00238        6    6 110
-.209041       1.55909       0             .00238        6    6 111
-.167233       1.55909       0             .00238        6    6 112
-.125425       1.55909       0             .00238        6    6 113
-.083616       1.55909       0             .00238        6    6 114
-.041808       1.55909       0             .00238        6    6 115
 0             1.55909       0             .00238        6    6 116
 .041808       1.55909       0             .00238        6    6 117
 .083616       1.55909       0             .00238        6    6 118
 .125425       1.55909       0             .00238        6    6 119
 .167233       1.55909       0             .00238        6    6 120
 .209041       1.55909       0             .00238        6    6 121
 .250849       1.55909       0             .00238        6    6 122
 .292657       1.55909       0             .00238        6    6 123
 .334465       1.55909       0             .00238        6    6 124
 .376274       1.55909       0             .00238        6    6 125
 .418082       1.55909       0             .00238        6    0 126

WIRE NO.  7 COORDINATES                                 CONNECTION PULSE
X             Y             Z             RADIUS        END1 END2  NO.
-.4064         2.19682       0             .00238        0    7 127
-.36576        2.19682       0             .00238        7    7 128
-.32512        2.19682       0             .00238        7    7 129
-.28448        2.19682       0             .00238        7    7 130
-.24384        2.19682       0             .00238        7    7 131
-.2032         2.19682       0             .00238        7    7 132
-.16256        2.19682       0             .00238        7    7 133
-.12192        2.19682       0             .00238        7    7 134
-.08128        2.19682       0             .00238        7    7 135
-.04064        2.19682       0             .00238        7    7 136
 0             2.19682       0             .00238        7    7 137
 .04064        2.19682       0             .00238        7    7 138
 .08128        2.19682       0             .00238        7    7 139
 .12192        2.19682       0             .00238        7    7 140
 .16256        2.19682       0             .00238        7    7 141
 .2032         2.19682       0             .00238        7    7 142
 .24384        2.19682       0             .00238        7    7 143
 .28448        2.19682       0             .00238        7    7 144
 .32512        2.19682       0             .00238        7    7 145
 .36576        2.19682       0             .00238        7    7 146
 .4064         2.19682       0             .00238        7    0 147

WIRE NO.  8 COORDINATES                                 CONNECTION PULSE
X             Y             Z             RADIUS        END1 END2  NO.
-.396009       2.9464        0             .00238        0    8 148
-.356408       2.9464        0             .00238        8    8 149
-.316807       2.9464        0             .00238        8    8 150
-.277206       2.9464        0             .00238        8    8 151
-.237605       2.9464        0             .00238        8    8 152
-.198005       2.9464        0             .00238        8    8 153
-.158404       2.9464        0             .00238        8    8 154
-.118803       2.9464        0             .00238        8    8 155
-.079201       2.9464        0             .00238        8    8 156
-.0396         2.9464        0             .00238        8    8 157
 0             2.9464        0             .00238        8    8 158
 .0396         2.9464        0             .00238        8    8 159
 .079201       2.9464        0             .00238        8    8 160
 .118803       2.9464        0             .00238        8    8 161
 .158404       2.9464        0             .00238        8    8 162
 .198005       2.9464        0             .00238        8    8 163
 .237605       2.9464        0             .00238        8    8 164
 .277206       2.9464        0             .00238        8    8 165
 .316807       2.9464        0             .00238        8    8 166
 .356408       2.9464        0             .00238        8    8 167
 .396009       2.9464        0             .00238        8    0 168

WIRE NO.  9 COORDINATES                                 CONNECTION PULSE
X             Y             Z             RADIUS        END1 END2  NO.
-.387927       3.72364       0             .00238        0    9 169
-.349135       3.72364       0             .00238        9    9 170
-.310342       3.72364       0             .00238        9    9 171
-.271549       3.72364       0             .00238        9    9 172
-.232756       3.72364       0             .00238        9    9 173
-.193964       3.72364       0             .00238        9    9 174
-.155171       3.72364       0             .00238        9    9 175
-.116378       3.72364       0             .00238        9    9 176
-.077585       3.72364       0             .00238        9    9 177
-.038792       3.72364       0             .00238        9    9 178
 0             3.72364       0             .00238        9    9 179
 .038792       3.72364       0             .00238        9    9 180
 .077585       3.72364       0             .00238        9    9 181
 .116378       3.72364       0             .00238        9    9 182
 .155171       3.72364       0             .00238        9    9 183
 .193964       3.72364       0             .00238        9    9 184
 .232756       3.72364       0             .00238        9    9 185
 .271549       3.72364       0             .00238        9    9 186
 .310342       3.72364       0             .00238        9    9 187
 .349135       3.72364       0             .00238        9    9 188
 .387927       3.72364       0             .00238        9    0 189

WIRE NO. 10 COORDINATES                                 CONNECTION PULSE
X             Y             Z             RADIUS        END1 END2  NO.
-.379845       4.53136       0             .00238        0   10 190
-.341861       4.53136       0             .00238       10   10 191
-.303876       4.53136       0             .00238       10   10 192
-.265892       4.53136       0             .00238       10   10 193
-.227907       4.53136       0             .00238       10   10 194
-.189923       4.53136       0             .00238       10   10 195
-.151938       4.53136       0             .00238       10   10 196
-.113954       4.53136       0             .00238       10   10 197
-.075969       4.53136       0             .00238       10   10 198
-.037984       4.53136       0             .00238       10   10 199
 0             4.53136       0             .00238       10   10 200
 .037984       4.53136       0             .00238       10   10 201
 .075969       4.53136       0             .00238       10   10 202
 .113954       4.53136       0             .00238       10   10 203
 .151938       4.53136       0             .00238       10   10 204
 .189923       4.53136       0             .00238       10   10 205
 .227907       4.53136       0             .00238       10   10 206
 .265892       4.53136       0             .00238       10   10 207
 .303876       4.53136       0             .00238       10   10 208
 .341861       4.53136       0             .00238       10   10 209
 .379845       4.53136       0             .00238       10    0 210

WIRE NO. 11 COORDINATES                                 CONNECTION PULSE
X             Y             Z             RADIUS        END1 END2  NO.
-.371764       5.334         0             .00238        0   11 211
-.334587       5.334         0             .00238       11   11 212
-.297411       5.334         0             .00238       11   11 213
-.260235       5.334         0             .00238       11   11 214
-.223058       5.334         0             .00238       11   11 215
-.185882       5.334         0             .00238       11   11 216
-.148705       5.334         0             .00238       11   11 217
-.111529       5.334         0             .00238       11   11 218
-.074352       5.334         0             .00238       11   11 219
-.037176       5.334         0             .00238       11   11 220
 0             5.334         0             .00238       11   11 221
 .037176       5.334         0             .00238       11   11 222
 .074352       5.334         0             .00238       11   11 223
 .111529       5.334         0             .00238       11   11 224
 .148705       5.334         0             .00238       11   11 225
 .185882       5.334         0             .00238       11   11 226
 .223058       5.334         0             .00238       11   11 227
 .260235       5.334         0             .00238       11   11 228
 .297411       5.334         0             .00238       11   11 229
 .334587       5.334         0             .00238       11   11 230
 .371764       5.334         0             .00238       11    0 231

WIRE NO. 12 COORDINATES                                 CONNECTION PULSE
X             Y             Z             RADIUS        END1 END2  NO.
-.360218       6.0452        0             .00238        0   12 232
-.324196       6.0452        0             .00238       12   12 233
-.288175       6.0452        0             .00238       12   12 234
-.252153       6.0452        0             .00238       12   12 235
-.216131       6.0452        0             .00238       12   12 236
-.180109       6.0452        0             .00238       12   12 237
-.144087       6.0452        0             .00238       12   12 238
-.108065       6.0452        0             .00238       12   12 239
-.072043       6.0452        0             .00238       12   12 240
-.036021       6.0452        0             .00238       12   12 241
 0             6.0452        0             .00238       12   12 242
 .036021       6.0452        0             .00238       12   12 243
 .072043       6.0452        0             .00238       12   12 244
 .108065       6.0452        0             .00238       12   12 245
 .144087       6.0452        0             .00238       12   12 246
 .180109       6.0452        0             .00238       12   12 247
 .216131       6.0452        0             .00238       12   12 248
 .252153       6.0452        0             .00238       12   12 249
 .288175       6.0452        0             .00238       12   12 250
 .324196       6.0452        0             .00238       12   12 251
 .360218       6.0452        0             .00238       12    0 252

NO. OF SOURCES :  1
PULSE NO., VOLTAGE MAGNITUDE, PHASE (DEGREES): 33 , 1 , 0
NUMBER OF LOADS 0

********************    SOURCE DATA     ********************
PULSE 33      VOLTAGE = ( 1 , 0 J)
              CURRENT = ( 1.978615E-02 , -1.453739E-03 J)
              IMPEDANCE = ( 50.26904 ,  3.693395 J)
              POWER =  9.893075E-03  WATTS

********************    CURRENT DATA    ********************

WIRE NO.  1 :
PULSE         REAL          IMAGINARY     MAGNITUDE     PHASE
 NO.          (AMPS)        (AMPS)        (AMPS)        (DEGREES)
E              0             0             0             0
 1             6.671953E-05  1.545412E-03  1.546851E-03  87.52792 
 2             9.331975E-05  2.850299E-03  2.851826E-03  88.12479 
 3             9.619154E-05  4.069382E-03  4.070518E-03  88.6459  
 4             8.293777E-05  5.200625E-03  5.201287E-03  89.08634 
 5             6.010672E-05  6.228664E-03  6.228954E-03  89.44711 
 6             3.305807E-05  7.134938E-03  7.135014E-03  89.73454 
 7             5.977642E-06  7.901488E-03  7.901490E-03  89.95665 
 8            -1.798074E-05  8.512681E-03  8.512700E-03  90.12102 
 9            -3.653403E-05  8.956141E-03  8.956215E-03  90.23372 
 10           -4.814126E-05  9.223251E-03  9.223377E-03  90.29906 
 11           -5.191595E-05  9.309327E-03  9.309472E-03  90.31952 
 12           -4.757744E-05  9.213459E-03  9.213582E-03  90.29587 
 13           -3.543519E-05  8.938155E-03  8.938225E-03  90.22715 
 14           -1.640408E-05  8.489095E-03  8.489111E-03  90.11072 
 15            7.947305E-06  7.875152E-03  7.875156E-03  89.94218 
 16            3.530931E-05  7.108458E-03  7.108546E-03  89.7154  
 17            6.250268E-05  6.204179E-03  6.204493E-03  89.42281 
 18            8.531704E-05  5.179735E-03  5.180437E-03  89.05635 
 19            9.836829E-05  4.053152E-03  4.054345E-03  88.60973 
 20            9.508110E-05  2.839291E-03  2.840882E-03  88.08202 
 21            6.781450E-05  1.539767E-03  1.541259E-03  87.47821 
E              0             0             0             0
WIRE NO.  2 :
PULSE         REAL          IMAGINARY     MAGNITUDE     PHASE
 NO.          (AMPS)        (AMPS)        (AMPS)        (DEGREES)
E              0             0             0             0
 22            3.319895E-03 -8.960662E-04  3.438697E-03 -15.10466 
 23            6.121515E-03 -1.482181E-03  6.298397E-03 -13.61088 
 24            8.739845E-03 -1.904988E-03  8.945047E-03 -12.2962  
 25            1.116613E-02 -2.205120E-03  1.138178E-02 -11.1712  
 26            1.336690E-02 -2.405352E-03  1.358159E-02 -10.20111 
 27            1.530448E-02 -2.518068E-03  1.551025E-02 -9.343246 
 28            1.694327E-02 -2.550246E-03  1.713412E-02 -8.559721 
 29            1.825212E-02 -2.505909E-03  1.842334E-02 -7.817499 
 30            1.920579E-02 -2.386944E-03  1.935355E-02 -7.084536 
 31            1.978567E-02 -2.192204E-03  1.990674E-02 -6.322446 
 32            1.998040E-02 -1.913045E-03  2.007177E-02 -5.469175 
 33            1.978615E-02 -1.453739E-03  1.983948E-02 -4.202117 
 34            1.920673E-02 -1.812598E-03  1.929207E-02 -5.39121  
 35            1.825348E-02 -1.991572E-03  1.836180E-02 -6.226708 
 36            1.694496E-02 -2.086380E-03  1.707292E-02 -7.019321 
 37            1.530643E-02 -2.105037E-03  1.545051E-02 -7.830553 
 38            1.336899E-02 -2.046867E-03  1.352477E-02 -8.704709 
 39            1.116822E-02 -1.905969E-03  1.132969E-02 -9.684798 
 40            8.741780E-03 -1.670171E-03  8.899898E-03 -10.81636 
 41            6.123102E-03 -1.316712E-03  6.263075E-03 -12.13607 
 42            3.320897E-03 -8.055447E-04  3.417200E-03 -13.6348  
E              0             0             0             0
WIRE NO.  3 :
PULSE         REAL          IMAGINARY     MAGNITUDE     PHASE
 NO.          (AMPS)        (AMPS)        (AMPS)        (DEGREES)
E              0             0             0             0
 43           -1.985662E-03 -3.986157E-03  4.453347E-03 -116.4797 
 44           -3.648198E-03 -7.214131E-03  8.084122E-03 -116.8258 
 45           -5.187382E-03 -1.015034E-02  1.139905E-02 -117.0695 
 46           -6.599923E-03 -1.282051E-02  1.441958E-02 -117.2391 
 47           -7.870130E-03 -1.521235E-02  1.712759E-02 -117.3549 
 48           -8.980168E-03 -1.730150E-02  1.949322E-02 -117.4311 
 49           -9.913260E-03 -1.906106E-02  2.148481E-02 -117.478  
 50           -1.065484E-02 -2.046548E-02  2.307296E-02 -117.5026 
 51           -1.119315E-02 -2.149248E-02  2.423249E-02 -117.5102 
 52           -1.151956E-02 -2.212402E-02  2.494339E-02 -117.5051 
 53           -1.162883E-02 -2.234663E-02  2.519130E-02 -117.4918 
 54           -1.151919E-02 -2.215234E-02  2.496834E-02 -117.4744 
 55           -1.119243E-02 -2.154162E-02  2.427575E-02 -117.4551 
 56           -1.065380E-02 -2.052588E-02  2.312607E-02 -117.4312 
 57           -9.911953E-03 -1.912495E-02  2.154090E-02 -117.3965 
 58           -8.978667E-03 -1.736333E-02  1.954742E-02 -117.3437 
 59           -7.868522E-03 -1.526821E-02  1.717649E-02 -117.2645 
 60           -6.598312E-03 -1.286768E-02  1.446080E-02 -117.1479 
 61           -5.185892E-03 -1.018695E-02  1.143099E-02 -116.9794 
 62           -3.646976E-03 -7.239088E-03  8.105851E-03 -116.7385 
 63           -1.984887E-03 -3.999030E-03  4.464529E-03 -116.3971 
E              0             0             0             0
WIRE NO.  4 :
PULSE         REAL          IMAGINARY     MAGNITUDE     PHASE
 NO.          (AMPS)        (AMPS)        (AMPS)        (DEGREES)
E              0             0             0             0
 64           -2.780880E-03  1.100078E-03  2.990563E-03  158.4169 
 65           -5.019050E-03  1.994546E-03  5.400840E-03  158.3274 
 66           -7.042735E-03  2.810052E-03  7.582645E-03  158.248  
 67           -8.871164E-03  3.551933E-03  9.555825E-03  158.1793 
 68           -1.049824E-02  4.215653E-03  1.131304E-02  158.1217 
 69           -1.190999E-02  4.793827E-03  1.283856E-02  158.075  
 70           -1.309080E-02  5.278766E-03  1.411504E-02  158.0386 
 71           -1.402603E-02  5.663515E-03  1.512630E-02  158.0118 
 72           -1.470335E-02  5.942361E-03  1.585876E-02  157.9939 
 73           -1.511350E-02  6.111101E-03  1.630226E-02  157.9842 
 74           -1.525076E-02  6.167189E-03  1.645053E-02  157.9823 
 75           -1.511320E-02  6.109807E-03  1.630149E-02  157.988  
 76           -1.470276E-02  5.939882E-03  1.585728E-02  158.0014 
 77           -1.402517E-02  5.660056E-03  1.512421E-02  158.0228 
 78           -1.308972E-02  5.274603E-03  1.411248E-02  158.0527 
 79           -1.190875E-02  4.789285E-03  1.283572E-02  158.0917 
 80           -1.049692E-02  4.211076E-03  1.131011E-02  158.1407 
 81           -8.869853E-03  3.547660E-03  9.553020E-03  158.2002 
 82           -7.041530E-03  2.806400E-03  7.580173E-03  158.2703 
 83           -5.018070E-03  1.991801E-03  5.398916E-03  158.3506 
 84           -2.780266E-03  1.098500E-03  2.989411E-03  158.4407 
E              0             0             0             0
WIRE NO.  5 :
PULSE         REAL          IMAGINARY     MAGNITUDE     PHASE
 NO.          (AMPS)        (AMPS)        (AMPS)        (DEGREES)
E              0             0             0             0
 85            1.601324E-03  3.644472E-03  3.980755E-03  66.28007 
 86            2.894580E-03  6.579219E-03  7.187817E-03  66.25252 
 87            4.067360E-03  9.233641E-03  1.008977E-02  66.22682 
 88            5.129794E-03  1.163261E-02  1.271347E-02  66.20329 
 89            6.077387E-03  1.376781E-02  1.504949E-02  66.18237 
 90            6.901137E-03  1.562067E-02  1.707721E-02  66.16439 
 91            7.591196E-03  1.717056E-02  1.877377E-02  66.14952 
 92            8.138405E-03  1.839817E-02  2.011781E-02  66.13786 
 93            8.535082E-03  1.928727E-02  2.109138E-02  66.12945 
 94            8.775478E-03  1.982567E-02  2.168101E-02  66.12428 
 95            8.856046E-03  2.000587E-02  2.187840E-02  66.12235 
 96            8.775589E-03  1.982533E-02  2.168074E-02  66.12365 
 97            8.535298E-03  1.928660E-02  2.109086E-02  66.12818 
 98            8.138716E-03  1.839722E-02  2.011707E-02  66.13596 
 99            7.591584E-03  1.716938E-02  1.877284E-02  66.14698 
 100           6.901581E-03  1.561933E-02  1.707616E-02  66.16121 
 101           6.077860E-03  1.376639E-02  1.504839E-02  66.17855 
 102           5.130264E-03  1.163122E-02  1.271239E-02  66.19882 
 103           4.067790E-03  9.232384E-03  1.008880E-02  66.2217  
 104           2.894928E-03  6.578214E-03  7.187037E-03  66.24675 
 105           1.601541E-03  3.643853E-03  3.980277E-03  66.27362 
E              0             0             0             0
WIRE NO.  6 :
PULSE         REAL          IMAGINARY     MAGNITUDE     PHASE
 NO.          (AMPS)        (AMPS)        (AMPS)        (DEGREES)
E              0             0             0             0
 106           1.895255E-03 -3.667486E-03  4.128250E-03 -62.67134 
 107           3.417861E-03 -6.618399E-03  7.448825E-03 -62.68735 
 108           4.792737E-03 -9.286591E-03  1.045041E-02 -62.7021  
 109           6.033495E-03 -1.169748E-02  1.316184E-02 -62.71556 
 110           7.136455E-03 -1.384297E-02  1.557424E-02 -62.72758 
 111           8.092557E-03 -1.570459E-02  1.766702E-02 -62.73801 
 112           8.891623E-03 -1.726173E-02  1.941721E-02 -62.74672 
 113           9.524098E-03 -1.849506E-02  2.080326E-02 -62.75363 
 114           9.981937E-03 -1.938833E-02  2.180703E-02 -62.75866 
 115           1.025911E-02 -1.992935E-02  2.241491E-02 -62.76178 
 116           1.035188E-02 -2.011058E-02  2.261851E-02 -62.76295 
 117           1.025901E-02 -1.992949E-02  2.241499E-02 -62.76216 
 118           9.981743E-03 -1.938860E-02  2.180717E-02 -62.75944 
 119           9.523819E-03 -1.849544E-02  2.080347E-02 -62.7548  
 120           8.891274E-03 -1.726220E-02  1.941748E-02 -62.74828 
 121           8.092157E-03 -1.570514E-02  1.766732E-02 -62.73997 
 122           7.136029E-03 -1.384355E-02  1.557456E-02 -62.72995 
 123           6.033071E-03 -1.169805E-02  1.316215E-02 -62.71834 
 124           4.792347E-03 -9.287112E-03  1.045070E-02 -62.7053  
 125           3.417545E-03 -6.618820E-03  7.449053E-03 -62.691   
 126           1.895056E-03 -3.667748E-03  4.128391E-03 -62.67545 
E              0             0             0             0
WIRE NO.  7 :
PULSE         REAL          IMAGINARY     MAGNITUDE     PHASE
 NO.          (AMPS)        (AMPS)        (AMPS)        (DEGREES)
E              0             0             0             0
 127          -3.001568E-03  8.047376E-04  3.107573E-03  164.9916 
 128          -5.398625E-03  1.448671E-03  5.589615E-03  164.9791 
 129          -7.556052E-03  2.029231E-03  7.823791E-03  164.9675 
 130          -9.497821E-03  2.552584E-03  9.834851E-03  164.9569 
 131          -1.122020E-02  3.017464E-03  1.161886E-02  164.9475 
 132          -1.271063E-02  3.420240E-03  1.316275E-02  164.9393 
 133          -1.395453E-02  3.756751E-03  1.445137E-02  164.9324 
 134          -1.493806E-02  4.023052E-03  1.547031E-02  164.927  
 135          -1.564948E-02  4.215808E-03  1.620738E-02  164.923  
 136          -1.607999E-02  4.332509E-03  1.665343E-02  164.9206 
 137          -1.622413E-02  4.371601E-03  1.680277E-02  164.9198 
 138          -1.608005E-02  4.332559E-03  1.665350E-02  164.9205 
 139          -1.564960E-02  4.215906E-03  1.620753E-02  164.9228 
 140          -1.493823E-02  4.023193E-03  1.547052E-02  164.9266 
 141          -1.395475E-02  3.756927E-03  1.445163E-02  164.932  
 142          -1.271088E-02  3.420443E-03  1.316305E-02  164.9387 
 143          -1.122047E-02  3.017681E-03  1.161918E-02  164.9468 
 144          -9.498088E-03  2.552801E-03  9.835165E-03  164.9561 
 145          -7.556296E-03  2.029431E-03  7.824078E-03  164.9666 
 146          -5.398823E-03  1.448835E-03  5.589849E-03  164.978  
 147          -3.001691E-03  8.048407E-04  3.107719E-03  164.9904 
E              0             0             0             0
WIRE NO.  8 :
PULSE         REAL          IMAGINARY     MAGNITUDE     PHASE
 NO.          (AMPS)        (AMPS)        (AMPS)        (DEGREES)
E              0             0             0             0
 148           1.984537E-03  9.878392E-04  2.216802E-03  26.46266 
 149           3.559640E-03  1.772030E-03  3.976320E-03  26.46466 
 150           4.972232E-03  2.475386E-03  5.554334E-03  26.46605 
 151           6.239835E-03  3.106579E-03  6.970392E-03  26.46699 
 152           7.361453E-03  3.665089E-03  8.223373E-03  26.4676  
 153           8.330070E-03  4.147408E-03  9.305432E-03  26.46798 
 154           9.137158E-03  4.549286E-03  1.020704E-02  26.46819 
 155           9.774496E-03  4.866631E-03  1.091901E-02  26.46829 
 156           1.023508E-02  5.095959E-03  1.143353E-02  26.46832 
 157           1.051362E-02  5.234645E-03  1.174469E-02  26.46833 
 158           1.060685E-02  5.281062E-03  1.184884E-02  26.46832 
 159           1.051366E-02  5.234660E-03  1.174473E-02  26.46831 
 160           1.023515E-02  5.095988E-03  1.143361E-02  26.46828 
 161           9.774604E-03  4.866672E-03  1.091913E-02  26.46823 
 162           9.137293E-03  4.549338E-03  1.020718E-02  26.46811 
 163           8.330226E-03  4.147467E-03  9.305597E-03  26.46788 
 164           7.361619E-03  3.665152E-03  8.223550E-03  26.46748 
 165           6.240000E-03  3.106641E-03  6.970568E-03  26.46684 
 166           4.972385E-03  2.475442E-03  5.554496E-03  26.46587 
 167           3.559764E-03  1.772076E-03  3.976452E-03  26.46445 
 168           1.984615E-03  9.878676E-04  2.216885E-03  26.46241 
E              0             0             0             0
WIRE NO.  9 :
PULSE         REAL          IMAGINARY     MAGNITUDE     PHASE
 NO.          (AMPS)        (AMPS)        (AMPS)        (DEGREES)
E              0             0             0             0
 169          -6.939720E-04 -1.529050E-03  1.679164E-03 -114.4113 
 170          -1.241867E-03 -2.736924E-03  3.005493E-03 -114.406  
 171          -1.731721E-03 -3.817265E-03  4.191703E-03 -114.4016 
 172          -2.170167E-03 -4.784518E-03  5.253688E-03 -114.3981 
 173          -2.557300E-03 -5.638762E-03  6.191561E-03 -114.3953 
 174          -2.891047E-03 -6.375328E-03  7.000212E-03 -114.3931 
 175          -3.168752E-03 -6.988286E-03  7.673143E-03 -114.3913 
 176          -3.387812E-03 -7.471844E-03  8.204006E-03 -114.39   
 177          -3.545994E-03 -7.821038E-03  8.587358E-03 -114.3891 
 178          -3.641605E-03 -8.032115E-03  8.819079E-03 -114.3886 
 179          -3.673597E-03 -8.102744E-03  8.896616E-03 -114.3884 
 180          -3.641613E-03 -8.032137E-03  8.819103E-03 -114.3886 
 181          -3.546009E-03 -7.821082E-03  8.587404E-03 -114.3891 
 182          -3.387835E-03 -7.471907E-03  8.204073E-03 -114.39   
 183          -3.168780E-03 -6.988365E-03  7.673227E-03 -114.3913 
 184          -2.891080E-03 -6.375419E-03  7.000308E-03 -114.393  
 185          -2.557335E-03 -5.638859E-03  6.191664E-03 -114.3952 
 186          -2.170202E-03 -4.784615E-03  5.253791E-03 -114.3981 
 187          -1.731753E-03 -3.817355E-03  4.191797E-03 -114.4016 
 188          -1.241894E-03 -2.736997E-03  3.005570E-03 -114.4059 
 189          -6.939892E-04 -1.529096E-03  1.679213E-03 -114.4112 
E              0             0             0             0
WIRE NO. 10 :
PULSE         REAL          IMAGINARY     MAGNITUDE     PHASE
 NO.          (AMPS)        (AMPS)        (AMPS)        (DEGREES)
E              0             0             0             0
 190          -2.880343E-04  1.247417E-03  1.280240E-03  103.002  
 191          -5.147787E-04  2.227893E-03  2.286592E-03  103.0105 
 192          -7.172381E-04  3.102360E-03  3.184190E-03  103.0176 
 193          -8.982396E-04  3.883430E-03  3.985958E-03  103.0235 
 194          -1.057898E-03  4.571894E-03  4.692693E-03  103.0285 
 195          -1.195422E-03  5.164565E-03  5.301109E-03  103.0325 
 196          -1.309771E-03  5.657137E-03  5.806781E-03  103.0357 
 197          -1.399921E-03  6.045333E-03  6.205307E-03  103.0382 
 198          -1.464990E-03  6.325455E-03  6.492887E-03  103.0399 
 199          -1.504309E-03  6.494697E-03  6.666636E-03  103.041  
 200          -1.517464E-03  6.551312E-03  6.724759E-03  103.0413 
 201          -1.504315E-03  6.494710E-03  6.666650E-03  103.041  
 202          -1.465001E-03  6.325482E-03  6.492916E-03  103.04   
 203          -1.399936E-03  6.045372E-03  6.205348E-03  103.0383 
 204          -1.309790E-03  5.657186E-03  5.806833E-03  103.0358 
 205          -1.195444E-03  5.164620E-03  5.301169E-03  103.0326 
 206          -1.057922E-03  4.571954E-03  4.692756E-03  103.0286 
 207          -8.982632E-04  3.883490E-03  3.986022E-03  103.0237 
 208          -7.172598E-04  3.102415E-03  3.184249E-03  103.0177 
 209          -5.147963E-04  2.227938E-03  2.286640E-03  103.0107 
 210          -2.880453E-04  1.247446E-03  1.280270E-03  103.0022 
E              0             0             0             0
WIRE NO. 11 :
PULSE         REAL          IMAGINARY     MAGNITUDE     PHASE
 NO.          (AMPS)        (AMPS)        (AMPS)        (DEGREES)
E              0             0             0             0
 211           7.949701E-04 -6.204725E-04  1.008446E-03 -37.97197 
 212           1.417238E-03 -1.105513E-03  1.797421E-03 -37.95592 
 213           1.971047E-03 -1.536753E-03  2.499327E-03 -37.94223 
 214           2.464821E-03 -1.920917E-03  3.124942E-03 -37.93048 
 215           2.899409E-03 -2.258795E-03  3.675422E-03 -37.9205  
 216           3.273076E-03 -2.549138E-03  4.148630E-03 -37.91219 
 217           3.583329E-03 -2.790095E-03  4.541462E-03 -37.90547 
 218           3.827653E-03 -2.979779E-03  4.850774E-03 -37.9003  
 219           4.003859E-03 -3.116540E-03  5.073826E-03 -37.89662 
 220           4.110277E-03 -3.199122E-03  5.208528E-03 -37.89443 
 221           4.145871E-03 -3.226739E-03  5.253579E-03 -37.89369 
 222           4.110286E-03 -3.199126E-03  5.208537E-03 -37.89441 
 223           4.003876E-03 -3.116549E-03  5.073845E-03 -37.89658 
 224           3.827678E-03 -2.979791E-03  4.850802E-03 -37.90024 
 225           3.583360E-03 -2.790111E-03  4.541497E-03 -37.90539 
 226           3.273111E-03 -2.549157E-03  4.148669E-03 -37.91209 
 227           2.899447E-03 -2.258815E-03  3.675464E-03 -37.92038 
 228           2.464859E-03 -1.920937E-03  3.124985E-03 -37.93034 
 229           1.971082E-03 -1.536772E-03  2.499366E-03 -37.94207 
 230           1.417267E-03 -1.105528E-03  1.797453E-03 -37.95574 
 231           7.949883E-04 -6.204822E-04  1.008466E-03 -37.97176 
E              0             0             0             0
WIRE NO. 12 :
PULSE         REAL          IMAGINARY     MAGNITUDE     PHASE
 NO.          (AMPS)        (AMPS)        (AMPS)        (DEGREES)
E              0             0             0             0
 232          -7.212802E-04 -1.389588E-04  7.345439E-04 -169.0952 
 233          -1.281798E-03 -2.468655E-04  1.305354E-03 -169.0987 
 234          -1.778672E-03 -3.424446E-04  1.811337E-03 -169.1023 
 235          -2.220199E-03 -4.273076E-04  2.260945E-03 -169.1059 
 236          -2.607727E-03 -5.017319E-04  2.655555E-03 -169.1093 
 237          -2.940171E-03 -5.655295E-04  2.994066E-03 -169.1124 
 238          -3.215690E-03 -6.183676E-04  3.274606E-03 -169.1151 
 239          -3.432349E-03 -6.598944E-04  3.495209E-03 -169.1173 
 240          -3.588437E-03 -6.897988E-04  3.654135E-03 -169.1189 
 241          -3.682640E-03 -7.078417E-04  3.750050E-03 -169.1198 
 242          -3.714136E-03 -7.138740E-04  3.782119E-03 -169.1202 
 243          -3.682646E-03 -7.078450E-04  3.750057E-03 -169.1198 
 244          -3.588449E-03 -6.898052E-04  3.654148E-03 -169.1188 
 245          -3.432367E-03 -6.599036E-04  3.495227E-03 -169.1172 
 246          -3.215712E-03 -6.183792E-04  3.274629E-03 -169.1149 
 247          -2.940196E-03 -5.655428E-04  2.994093E-03 -169.1122 
 248          -2.607753E-03 -5.017461E-04  2.655584E-03 -169.1091 
 249          -2.220225E-03 -4.273217E-04  2.260974E-03 -169.1056 
 250          -1.778696E-03 -3.424577E-04  1.811364E-03 -169.102  
 251          -1.281818E-03 -2.468762E-04  1.305376E-03 -169.0984 
 252          -7.212931E-04 -1.389655E-04  7.345578E-04 -169.0949 
E              0             0             0             0

********************     FAR FIELD      ********************

ZENITH ANGLE : INITIAL,INCREMENT,NUMBER: 0 , 5 , 37
AZIMUTH ANGLE: INITIAL,INCREMENT,NUMBER: 0 , 5 , 73

********************    PATTERN DATA    ********************
ZENITH        AZIMUTH       VERTICAL      HORIZONTAL    TOTAL
 ANGLE         ANGLE        PATTERN (DB)  PATTERN (DB)  PATTERN (DB)
 0             0            -6.848256     -999          -6.848256
 5             0            -6.908801     -999          -6.908801
 10            0            -7.070706     -999          -7.070706
 15            0            -7.333968     -999          -7.333968
 20            0            -7.69878      -999          -7.69878 
 25            0            -8.165765     -999          -8.165765
 30            0            -8.736342     -999          -8.736342
 35            0            -9.413273     -999          -9.413273
 40            0            -10.20147     -999          -10.20147
 45            0            -11.10922     -999          -11.10922
 50            0            -12.15005     -999          -12.15005
 55            0            -13.3458      -999          -13.3458 
 60            0            -14.73197     -999          -14.73197
 65            0            -16.36776     -999          -16.36776
 70            0            -18.35724     -999          -18.35724
 75            0            -20.90141     -999          -20.90141
 80            0            -24.45868     -999          -24.45868
 85            0            -30.50178     -999          -30.50178
 90            0            -999          -999          -999     
 95            0            -30.50178     -999          -30.50178
 100           0            -24.45868     -999          -24.45868
 105           0            -20.90141     -999          -20.90141
 110           0            -18.35724     -999          -18.35724
 115           0            -16.36776     -999          -16.36776
 120           0            -14.73197     -999          -14.73197
 125           0            -13.3458      -999          -13.3458 
 130           0            -12.15005     -999          -12.15005
 135           0            -11.10922     -999          -11.10922
 140           0            -10.20147     -999          -10.20147
 145           0            -9.413273     -999          -9.413273
 150           0            -8.736342     -999          -8.736342
 155           0            -8.165765     -999          -8.165765
 160           0            -7.69878      -999          -7.69878 
 165           0            -7.333968     -999          -7.333968
 170           0            -7.070706     -999          -7.070706
 175           0            -6.908801     -999          -6.908801
 180           0            -6.848256     -999          -6.848256
 0             5            -6.881371     -28.04234     -6.848256
 5             5            -6.540269     -27.66812     -6.506901
 10            5            -6.330573     -27.35857     -6.296432
 15            5            -6.255028     -27.11487     -6.219545
 20            5            -6.315517     -26.9362      -6.278033
 25            5            -6.513405     -26.81988     -6.473122
 30            5            -6.850005     -26.76158     -6.805907
 35            5            -7.327216     -26.75547     -7.277957
 40            5            -7.948406     -26.79445     -7.892125
 45            5            -8.719702     -26.87037     -8.653722
 50            5            -9.651953     -26.97427     -9.572234
 55            5            -10.7639      -27.09669     -10.66401
 60            5            -12.0876      -27.22796     -11.95662
 65            5            -13.67865     -27.35858     -13.49641
 70            5            -15.63759     -27.47959     -15.36233
 75            5            -18.16205     -27.58294     -17.69217
 80            5            -21.70754     -27.66191     -20.72511
 85            5            -27.74452     -27.71141     -24.71763
 90            5            -999          -27.72826     -27.72826
 95            5            -27.74452     -27.71141     -24.71763
 100           5            -21.70754     -27.66191     -20.72511
 105           5            -18.16205     -27.58294     -17.69217
 110           5            -15.63759     -27.47959     -15.36233
 115           5            -13.67865     -27.35858     -13.49641
 120           5            -12.0876      -27.22796     -11.95662
 125           5            -10.7639      -27.09669     -10.66401
 130           5            -9.651953     -26.97427     -9.572234
 135           5            -8.719702     -26.87037     -8.653722
 140           5            -7.948406     -26.79445     -7.892125
 145           5            -7.327216     -26.75547     -7.277957
 150           5            -6.850005     -26.76158     -6.805907
 155           5            -6.513405     -26.81988     -6.473122
 160           5            -6.315517     -26.9362      -6.278033
 165           5            -6.255028     -27.11487     -6.219545
 170           5            -6.330573     -27.35857     -6.296432
 175           5            -6.540269     -27.66812     -6.506901
 180           5            -6.881371     -28.04234     -6.848256
 0             10           -6.981226     -22.05485     -6.848256
 5             10           -6.269933     -21.31044     -6.135959
 10            10           -5.780781     -20.72143     -5.64374 
 15            10           -5.519267     -20.29177     -5.376905
 20            10           -5.484309     -20.01765     -5.334024
 25            10           -5.671118     -19.89026     -5.509765
 30            10           -6.072933     -19.89717     -5.896529
 35            10           -6.6822       -20.02311     -6.485492
 40            10           -7.491644     -20.25035     -7.267434
 45            10           -8.4956       -20.55892     -8.233609
 50            10           -9.691989     -20.92696     -9.376897
 55            10           -11.0856      -21.33105     -10.69342
 60            10           -12.69383     -21.74686     -12.18476
 65            10           -14.55739     -22.14998     -13.86042
 70            10           -16.76237     -22.51703     -15.73877
 75            10           -19.4933      -22.82685     -17.83749
 80            10           -23.19464     -23.06167     -20.11735
 85            10           -29.32856     -23.2081      -22.25879
 90            10           -999          -23.25785     -23.25785
 95            10           -29.32856     -23.2081      -22.25879
 100           10           -23.19464     -23.06167     -20.11735
 105           10           -19.4933      -22.82685     -17.83749
 110           10           -16.76237     -22.51703     -15.73877
 115           10           -14.55739     -22.14998     -13.86042
 120           10           -12.69383     -21.74686     -12.18476
 125           10           -11.0856      -21.33105     -10.69342
 130           10           -9.691989     -20.92696     -9.376897
 135           10           -8.4956       -20.55892     -8.233609
 140           10           -7.491644     -20.25035     -7.267434
 145           10           -6.6822       -20.02311     -6.485492
 150           10           -6.072933     -19.89717     -5.896529
 155           10           -5.671118     -19.89026     -5.509765
 160           10           -5.484309     -20.01765     -5.334024
 165           10           -5.519267     -20.29177     -5.376905
 170           10           -5.780781     -20.72143     -5.64374 
 175           10           -6.269933     -21.31044     -6.135959
 180           10           -6.981226     -22.05485     -6.848256
 0             15           -7.14938      -18.58833     -6.848256
 5             15           -6.102331     -17.50817     -5.79898 
 10            15           -5.427422     -16.7334      -5.117262
 15            15           -5.128022     -16.26585     -4.806061
 20            15           -5.192851     -16.09152     -4.853357
 25            15           -5.605211     -16.18968     -5.241284
 30            15           -6.345378     -16.53494     -5.948346
 35            15           -7.389954     -17.09619     -6.948485
 40            15           -8.709677     -17.83371     -8.208402
 45            15           -10.26669     -18.69535     -9.683978
 50            15           -12.01334     -19.61364     -11.31752
 55            15           -13.89683     -20.50761     -13.03952
 60            15           -15.87611     -21.29446     -14.77969
 65            15           -17.95375     -21.91167     -16.48633
 70            15           -20.21772     -22.33771     -18.13932
 75            15           -22.89547     -22.59434     -19.73199
 80            15           -26.49581     -22.72816     -21.20532
 85            15           -32.54179     -22.78666     -22.34989
 90            15           -999          -22.80239     -22.80239
 95            15           -32.54179     -22.78666     -22.34989
 100           15           -26.49581     -22.72816     -21.20532
 105           15           -22.89547     -22.59434     -19.73199
 110           15           -20.21772     -22.33771     -18.13932
 115           15           -17.95375     -21.91167     -16.48633
 120           15           -15.87611     -21.29446     -14.77969
 125           15           -13.89683     -20.50761     -13.03952
 130           15           -12.01334     -19.61364     -11.31752
 135           15           -10.26669     -18.69535     -9.683978
 140           15           -8.709677     -17.83371     -8.208402
 145           15           -7.389954     -17.09619     -6.948485
 150           15           -6.345378     -16.53494     -5.948346
 155           15           -5.605211     -16.18968     -5.241284
 160           15           -5.192851     -16.09152     -4.853357
 165           15           -5.128022     -16.26585     -4.806061
 170           15           -5.427422     -16.7334      -5.117262
 175           15           -6.102331     -17.50817     -5.79898 
 180           15           -7.14938      -18.58833     -6.848256
 0             20           -7.388539     -16.16722     -6.848256
 5             20           -6.041657     -14.78722     -5.497486
 10            20           -5.270279     -13.91599     -4.714229
 15            20           -5.068557     -13.54611     -4.49195 
 20            20           -5.410805     -13.6492      -4.803737
 25            20           -6.265197     -14.18939     -5.615827
 30            20           -7.583467     -15.11276     -6.877058
 35            20           -9.268655     -16.31463     -8.486171
 40            20           -11.11793     -17.58169     -10.23392
 45            20           -12.79327     -18.56165     -11.77254
 50            20           -13.98878     -18.92881     -12.78099
 55            20           -14.74289     -18.6934      -13.27334
 60            20           -15.39466     -18.15274     -13.54803
 65            20           -16.2785      -17.57615     -13.86874
 70            20           -17.63212     -17.09183     -14.34328
 75            20           -19.69509     -16.7337      -14.95642
 80            20           -22.92377     -16.49586     -15.60522
 85            20           -28.77751     -16.36211     -16.11996
 90            20           -999          -16.31916     -16.31916
 95            20           -28.77751     -16.36211     -16.11996
 100           20           -22.92377     -16.49586     -15.60522
 105           20           -19.69509     -16.7337      -14.95642
 110           20           -17.63212     -17.09183     -14.34328
 115           20           -16.2785      -17.57615     -13.86874
 120           20           -15.39466     -18.15274     -13.54803
 125           20           -14.74289     -18.6934      -13.27334
 130           20           -13.98878     -18.92881     -12.78099
 135           20           -12.79327     -18.56165     -11.77254
 140           20           -11.11793     -17.58169     -10.23392
 145           20           -9.268655     -16.31463     -8.486171
 150           20           -7.583467     -15.11276     -6.877058
 155           20           -6.265197     -14.18939     -5.615827
 160           20           -5.410805     -13.6492      -4.803737
 165           20           -5.068557     -13.54611     -4.49195 
 170           20           -5.270279     -13.91599     -4.714229
 175           20           -6.041657     -14.78722     -5.497486
 180           20           -7.388539     -16.16722     -6.848256
 0             25           -7.702741     -14.32929     -6.848256
 5             25           -6.092181     -12.68561     -5.231762
 10            25           -5.305977     -11.79956     -4.427441
 15            25           -5.323114     -11.64854     -4.413291
 20            25           -6.101237     -12.1875      -5.145191
 25            25           -7.567111     -13.33917     -6.547153
 30            25           -9.496442     -14.8736      -8.390802
 35            25           -11.26461     -16.15845     -10.04556
 40            25           -12.01977     -16.3314      -10.65085
 45            25           -11.84586     -15.46211     -10.27769
 50            25           -11.56981     -14.35771     -9.73349 
 55            25           -11.67611     -13.47449     -9.47257 
 60            25           -12.29548     -12.90143     -9.5776  
 65            25           -13.4497      -12.59521     -9.991173
 70            25           -15.17355     -12.48113     -10.61165
 75            25           -17.59751     -12.48399     -11.31768
 80            25           -21.11815     -12.5381      -11.9741 
 85            25           -27.1599      -12.59237     -12.44325
 90            25           -999          -12.61421     -12.61421
 95            25           -27.1599      -12.59237     -12.44325
 100           25           -21.11815     -12.5381      -11.9741 
 105           25           -17.59751     -12.48399     -11.31768
 110           25           -15.17355     -12.48113     -10.61165
 115           25           -13.4497      -12.59521     -9.991173
 120           25           -12.29548     -12.90143     -9.5776  
 125           25           -11.67611     -13.47449     -9.47257 
 130           25           -11.56981     -14.35771     -9.73349 
 135           25           -11.84586     -15.46211     -10.27769
 140           25           -12.01977     -16.3314      -10.65085
 145           25           -11.26461     -16.15845     -10.04556
 150           25           -9.496442     -14.8736      -8.390802
 155           25           -7.567111     -13.33917     -6.547153
 160           25           -6.101237     -12.1875      -5.145191
 165           25           -5.323114     -11.64854     -4.413291
 170           25           -5.305977     -11.79956     -4.427441
 175           25           -6.092181     -12.68561     -5.231762
 180           25           -7.702741     -14.32929     -6.848256
 0             30           -8.097643     -12.86886     -6.848256
 5             30           -6.258759     -10.99686     -5.00107 
 10            30           -5.529844     -10.16809     -4.24683 
 15            30           -5.871018     -10.34111     -4.54437 
 20            30           -7.208655     -11.43958     -5.817765
 25            30           -9.27113      -13.18786     -7.791851
 30            30           -11.01334     -14.53517     -9.416335
 35            30           -11.04133     -14.07984     -9.289802
 40            30           -10.11488     -12.57118     -8.161342
 45            30           -9.526755     -11.28767     -7.308268
 50            30           -9.635602     -10.56816     -7.0666  
 55            30           -10.42823     -10.37127     -7.389353
 60            30           -11.83195     -10.58256     -8.152184
 65            30           -13.78967     -11.07984     -9.216445
 70            30           -16.28824     -11.74049     -10.43415
 75            30           -19.40929     -12.44043     -11.64514
 80            30           -23.49243     -13.05705     -12.68094
 85            30           -29.90309     -13.48022     -13.38237
 90            30           -999          -13.63096     -13.63096
 95            30           -29.90309     -13.48022     -13.38237
 100           30           -23.49243     -13.05705     -12.68094
 105           30           -19.40929     -12.44043     -11.64514
 110           30           -16.28824     -11.74049     -10.43415
 115           30           -13.78967     -11.07984     -9.216445
 120           30           -11.83195     -10.58256     -8.152184
 125           30           -10.42823     -10.37127     -7.389353
 130           30           -9.635602     -10.56816     -7.0666  
 135           30           -9.526755     -11.28767     -7.308268
 140           30           -10.11488     -12.57118     -8.161342
 145           30           -11.04133     -14.07984     -9.289802
 150           30           -11.01334     -14.53517     -9.416335
 155           30           -9.27113      -13.18786     -7.791851
 160           30           -7.208655     -11.43958     -5.817765
 165           30           -5.871018     -10.34111     -4.54437 
 170           30           -5.529844     -10.16809     -4.24683 
 175           30           -6.258759     -10.99686     -5.00107 
 180           30           -8.097643     -12.86886     -6.848256
 0             35           -8.580965     -11.67643     -6.848256
 5             35           -6.547491     -9.60984      -4.803859
 10            35           -5.937175     -8.899669     -4.160269
 15            35           -6.687908     -9.482248     -4.853809
 20            35           -8.627818     -11.183       -6.70984 
 25            35           -10.76096     -13.00193     -8.728176
 30            35           -10.80527     -12.65135     -8.620648
 35            35           -9.413395     -10.77615     -7.031239
 40            35           -8.56782      -9.348363     -5.93028 
 45            35           -8.711321     -8.796485     -5.743394
 50            35           -9.790564     -9.047378     -6.392793
 55            35           -11.71396     -9.981255     -7.751465
 60            35           -14.42025     -11.49511     -9.705625
 65            35           -17.88178     -13.49621     -12.14715
 70            35           -22.10194     -15.87844     -14.94917
 75            35           -27.12246     -18.47785     -17.92167
 80            35           -33.10663     -20.9955      -20.7363 
 85            35           -41.024       -22.92539     -22.85862
 90            35           -999          -23.66563     -23.66563
 95            35           -41.024       -22.92539     -22.85862
 100           35           -33.10663     -20.9955      -20.7363 
 105           35           -27.12246     -18.47785     -17.92167
 110           35           -22.10194     -15.87844     -14.94917
 115           35           -17.88178     -13.49621     -12.14715
 120           35           -14.42025     -11.49511     -9.705625
 125           35           -11.71396     -9.981255     -7.751465
 130           35           -9.790564     -9.047378     -6.392793
 135           35           -8.711321     -8.796485     -5.743394
 140           35           -8.56782      -9.348363     -5.93028 
 145           35           -9.413395     -10.77615     -7.031239
 150           35           -10.80527     -12.65135     -8.620648
 155           35           -10.76096     -13.00193     -8.728176
 160           35           -8.627818     -11.183       -6.70984 
 165           35           -6.687908     -9.482248     -4.853809
 170           35           -5.937175     -8.899669     -4.160269
 175           35           -6.547491     -9.60984      -4.803859
 180           35           -8.580965     -11.67643     -6.848256
 0             40           -9.163176     -10.68691     -6.848256
 5             40           -6.96658      -8.457194     -4.637946
 10            40           -6.524391     -7.91515      -4.154036
 15            40           -7.743912     -8.966517     -5.302033
 20            40           -10.15839     -11.14183     -7.612031
 25            40           -11.27255     -11.9418      -8.583997
 30            40           -9.689457     -9.963799     -6.814162
 35            40           -8.36455      -8.155569     -5.248503
 40            40           -8.33131      -7.540119     -4.907422
 45            40           -9.588335     -8.101765     -5.771452
 50            40           -12.10203     -9.787109     -7.781822
 55            40           -15.98934     -12.68489     -11.01983
 60            40           -21.69142     -17.19455     -15.87494
 65            40           -30.53155     -24.57425     -23.59242
 70            40           -37.36825     -29.57301     -28.9055 
 75            40           -33.67384     -23.4575      -23.0628 
 80            40           -34.2528      -20.56993     -20.38781
 85            40           -38.98828     -19.31793     -19.27133
 90            40           -999          -18.96121     -18.96121
 95            40           -38.98828     -19.31793     -19.27133
 100           40           -34.2528      -20.56993     -20.38781
 105           40           -33.67384     -23.4575      -23.0628 
 110           40           -37.36825     -29.57301     -28.9055 
 115           40           -30.53155     -24.57425     -23.59242
 120           40           -21.69142     -17.19455     -15.87494
 125           40           -15.98934     -12.68489     -11.01983
 130           40           -12.10203     -9.787109     -7.781822
 135           40           -9.588335     -8.101765     -5.771452
 140           40           -8.33131      -7.540119     -4.907422
 145           40           -8.36455      -8.155569     -5.248503
 150           40           -9.689457     -9.963799     -6.814162
 155           40           -11.27255     -11.9418      -8.583997
 160           40           -10.15839     -11.14183     -7.612031
 165           40           -7.743912     -8.966517     -5.302033
 170           40           -6.524391     -7.91515      -4.154036
 175           40           -6.96658      -8.457194     -4.637946
 180           40           -9.163176     -10.68691     -6.848256
 0             45           -9.858556     -9.858556     -6.848256
 5             45           -7.527578     -7.494462     -4.500689
 10            45           -7.290452     -7.157481     -4.213158
 15            45           -9.002322     -8.701197     -5.83885 
 20            45           -11.50423     -10.96395     -8.215396
 25            45           -10.93413     -10.07965     -7.47561 
 30            45           -8.915519     -7.666132     -5.235752
 35            45           -8.296831     -6.564122     -4.334331
 40            45           -9.365818     -7.050898     -5.04561 
 45            45           -12.17576     -9.16546      -7.404547
 50            45           -17.18698     -13.34833     -11.84637
 55            45           -26.29645     -21.46828     -20.23306
 60            45           -31.10586     -25.08526     -24.11616
 65            45           -25.6716      -18.19056     -17.47688
 70            45           -24.96547     -15.6465      -15.16605
 75            45           -26.45257     -14.71249     -14.4309 
 80            45           -29.63181     -14.42521     -14.29619
 85            45           -35.54809     -14.35401     -14.32114
 90            45           -999          -14.34001     -14.34001
 95            45           -35.54809     -14.35401     -14.32114
 100           45           -29.63181     -14.42521     -14.29619
 105           45           -26.45257     -14.71249     -14.4309 
 110           45           -24.96547     -15.6465      -15.16605
 115           45           -25.6716      -18.19056     -17.47688
 120           45           -31.10586     -25.08526     -24.11616
 125           45           -26.29645     -21.46828     -20.23306
 130           45           -17.18698     -13.34833     -11.84637
 135           45           -12.17576     -9.16546      -7.404547
 140           45           -9.365818     -7.050898     -5.04561 
 145           45           -8.296831     -6.564122     -4.334331
 150           45           -8.915519     -7.666132     -5.235752
 155           45           -10.93413     -10.07965     -7.47561 
 160           45           -11.50423     -10.96395     -8.215396
 165           45           -9.002322     -8.701197     -5.83885 
 170           45           -7.290452     -7.157481     -4.213158
 175           45           -7.527578     -7.494462     -4.500689
 180           45           -9.858556     -9.858556     -6.848256
 0             50           -10.68691     -9.163176     -6.848256
 5             50           -8.24725      -6.690405     -4.389136
 10            50           -8.238963     -6.582263     -4.32179 
 15            50           -10.42127     -8.596418     -6.403394
 20            50           -12.43827     -10.37426     -8.274482
 25            50           -10.51168     -8.133468     -6.151479
 30            50           -8.82389      -6.050773     -4.209351
 35            50           -9.14421      -5.887771     -4.207364
 40            50           -11.61535     -7.776701     -6.274739
 45            50           -16.87318     -12.33915     -11.02924
 50            50           -27.95938     -22.597       -21.48804
 55            50           -26.18314     -19.83124     -18.92641
 60            50           -22.34069     -14.79636     -14.09221
 65            50           -22.43508     -13.43031     -12.91588
 70            50           -23.99787     -13.15517     -12.81144
 75            50           -25.78894     -12.52514     -12.32499
 80            50           -28.06283     -11.33251     -11.24127
 85            50           -33.02367     -10.30586     -10.2827 
 90            50           -999          -9.924481     -9.924481
 95            50           -33.02367     -10.30586     -10.2827 
 100           50           -28.06283     -11.33251     -11.24127
 105           50           -25.78894     -12.52514     -12.32499
 110           50           -23.99787     -13.15517     -12.81144
 115           50           -22.43508     -13.43031     -12.91588
 120           50           -22.34069     -14.79636     -14.09221
 125           50           -26.18314     -19.83124     -18.92641
 130           50           -27.95938     -22.597       -21.48804
 135           50           -16.87318     -12.33915     -11.02924
 140           50           -11.61535     -7.776701     -6.274739
 145           50           -9.14421      -5.887771     -4.207364
 150           50           -8.82389      -6.050773     -4.209351
 155           50           -10.51168     -8.133468     -6.151479
 160           50           -12.43827     -10.37426     -8.274482
 165           50           -10.42127     -8.596418     -6.403394
 170           50           -8.238963     -6.582263     -4.32179 
 175           50           -8.24725      -6.690405     -4.389136
 180           50           -10.68691     -9.163176     -6.848256
 0             55           -11.67643     -8.580965     -6.848256
 5             55           -9.150605     -6.022025     -4.300182
 10            55           -9.381543     -6.153108     -4.463697
 15            55           -11.96222     -8.56563      -6.929702
 20            55           -13.02855     -9.392799     -7.830527
 25            55           -10.4586      -6.508647     -5.038932
 30            55           -9.402621     -5.05777      -3.697804
 35            55           -10.80849     -5.980313     -4.745096
 40            55           -15.15114     -9.740752     -8.642557
 45            55           -25.15088     -19.04512     -18.09292
 50            55           -26.02821     -19.09409     -18.29297
 55            55           -21.43577     -13.51214     -12.86269
 60            55           -21.50289     -12.38682     -11.88468
 65            55           -22.04533     -11.46883     -11.10426
 70            55           -20.99337     -8.578944     -8.336744
 75            55           -20.33047     -5.494933     -5.354589
 80            55           -21.61159     -3.30953      -3.245793
 85            55           -26.35407     -2.064526     -2.048381
 90            55           -999          -1.662766     -1.662766
 95            55           -26.35407     -2.064526     -2.048381
 100           55           -21.61159     -3.30953      -3.245793
 105           55           -20.33047     -5.494933     -5.354589
 110           55           -20.99337     -8.578944     -8.336744
 115           55           -22.04533     -11.46883     -11.10426
 120           55           -21.50289     -12.38682     -11.88468
 125           55           -21.43577     -13.51214     -12.86269
 130           55           -26.02821     -19.09409     -18.29297
 135           55           -25.15088     -19.04512     -18.09292
 140           55           -15.15114     -9.740752     -8.642557
 145           55           -10.80849     -5.980313     -4.745096
 150           55           -9.402621     -5.05777      -3.697804
 155           55           -10.4586      -6.508647     -5.038932
 160           55           -13.02855     -9.392799     -7.830527
 165           55           -11.96222     -8.56563      -6.929702
 170           55           -9.381543     -6.153108     -4.463697
 175           55           -9.150605     -6.022025     -4.300182
 180           55           -11.67643     -8.580965     -6.848256
 0             60           -12.86886     -8.097643     -6.848256
 5             60           -10.27616     -5.471835     -4.230703
 10            60           -10.74358     -5.8394       -4.622875
 15            60           -13.60816     -8.535826     -7.359785
 20            60           -13.57157     -8.260071     -7.139585
 25            60           -10.9086      -5.282897     -4.231892
 30            60           -10.58427     -4.563672     -3.594572
 35            60           -13.21876     -6.714835     -5.838192
 40            60           -20.25464     -13.16851     -12.39262
 45            60           -30.08415     -22.30263     -21.63317
 50            60           -22.03201     -13.42215     -12.86177
 55            60           -21.29309     -11.6937      -11.24179
 60            60           -20.95902     -10.1672      -9.819584
 65            60           -18.02072     -5.768473     -5.517318
 70            60           -15.81232     -1.722137     -1.556012
 75            60           -15.43271      1.078582      1.17449 
 80            60           -17.11532      2.862492      2.905926
 85            60           -22.114        3.851291      3.862274
 90            60           -999           4.168035      4.168035
 95            60           -22.114        3.851291      3.862274
 100           60           -17.11532      2.862492      2.905926
 105           60           -15.43271      1.078582      1.17449 
 110           60           -15.81232     -1.722137     -1.556012
 115           60           -18.02072     -5.768473     -5.517318
 120           60           -20.95902     -10.1672      -9.819584
 125           60           -21.29309     -11.6937      -11.24179
 130           60           -22.03201     -13.42215     -12.86177
 135           60           -30.08415     -22.30263     -21.63317
 140           60           -20.25464     -13.16851     -12.39262
 145           60           -13.21876     -6.714835     -5.838192
 150           60           -10.58427     -4.563672     -3.594572
 155           60           -10.9086      -5.282897     -4.231892
 160           60           -13.57157     -8.260071     -7.139585
 165           60           -13.60816     -8.535826     -7.359785
 170           60           -10.74358     -5.8394       -4.622875
 175           60           -10.27616     -5.471835     -4.230703
 180           60           -12.86886     -8.097643     -6.848256
 0             65           -14.32929     -7.702741     -6.848256
 5             65           -11.68594     -5.026278     -4.177688
 10            65           -12.37481     -5.615291     -4.784258
 15            65           -15.39001     -8.462336     -7.660124
 20            65           -14.36154     -7.194709     -6.431922
 25            65           -11.894       -4.412963     -3.699276
 30            65           -12.31832     -4.442388     -3.786284
 35            65           -16.33025     -7.970988     -7.379497
 40            65           -27.44041     -18.49894     -17.97739
 45            65           -25.14422     -15.50737     -15.05914
 50            65           -21.87291     -11.40771     -11.03407
 55            65           -21.63025     -10.17553     -9.87546 
 60            65           -17.8968      -5.249653     -5.019761
 65            65           -14.34439     -.236808      -.071335 
 70            65           -12.69754      3.247976      3.357061
 75            65           -12.81089      5.555737      5.61854 
 80            65           -14.81825      7.014894      7.043276
 85            65           -19.99842      7.822207      7.829374
 90            65           -999           8.080623      8.080623
 95            65           -19.99842      7.822207      7.829374
 100           65           -14.81825      7.014894      7.043276
 105           65           -12.81089      5.555737      5.61854 
 110           65           -12.69754      3.247976      3.357061
 115           65           -14.34439     -.236808      -.071335 
 120           65           -17.8968      -5.249653     -5.019761
 125           65           -21.63025     -10.17553     -9.87546 
 130           65           -21.87291     -11.40771     -11.03407
 135           65           -25.14422     -15.50737     -15.05914
 140           65           -27.44041     -18.49894     -17.97739
 145           65           -16.33025     -7.970988     -7.379497
 150           65           -12.31832     -4.442388     -3.786284
 155           65           -11.894       -4.412963     -3.699276
 160           65           -14.36154     -7.194709     -6.431922
 165           65           -15.39001     -8.462336     -7.660124
 170           65           -12.37481     -5.615291     -4.784258
 175           65           -11.68594     -5.026278     -4.177688
 180           65           -14.32929     -7.702741     -6.848256
 0             70           -16.16722     -7.388539     -6.848256
 5             70           -13.48658     -4.674784     -4.138361
 10            70           -14.37101     -5.459353     -4.934415
 15            70           -17.41693     -8.337121     -7.831003
 20            70           -15.62513     -6.306166     -5.825721
 25            70           -13.46032     -3.827148     -3.378563
 30            70           -14.60027     -4.572201     -4.160818
 35            70           -20.1191      -9.607704     -9.237857
 40            70           -33.51774     -22.42414     -22.099  
 45            70           -24.23748     -12.4485      -12.16996
 50            70           -23.1653      -10.54796     -10.31653
 55            70           -20.55576     -6.948903     -6.763634
 60            70           -15.61963     -.82035       -.678848 
 65            70           -12.61259      3.647126      3.748686
 70            70           -11.46781      6.62984       6.696625
 75            70           -11.92306      8.595696      8.634066
 80            70           -14.14936      9.835919      9.853233
 85            70           -19.45227      10.52049      10.52486
 90            70           -999           10.73927      10.73927
 95            70           -19.45227      10.52049      10.52486
 100           70           -14.14936      9.835919      9.853233
 105           70           -11.92306      8.595696      8.634066
 110           70           -11.46781      6.62984       6.696625
 115           70           -12.61259      3.647126      3.748686
 120           70           -15.61963     -.82035       -.678848 
 125           70           -20.55576     -6.948903     -6.763634
 130           70           -23.1653      -10.54796     -10.31653
 135           70           -24.23748     -12.4485      -12.16996
 140           70           -33.51774     -22.42414     -22.099  
 145           70           -20.1191      -9.607704     -9.237857
 150           70           -14.60027     -4.572201     -4.160818
 155           70           -13.46032     -3.827148     -3.378563
 160           70           -15.62513     -6.306166     -5.825721
[...]
 150           320          -15.47073     -15.74507     -12.59544
 155           320          -12.3889      -13.05814     -9.700342
 160           320          -11.17617     -12.15961     -8.62981 
 165           320          -11.77724     -12.99984     -9.335356
 170           320          -13.56979     -14.96054     -11.19943
 175           320          -12.63045     -14.12106     -10.30181
 180           320          -9.163176     -10.68691     -6.848256
 0             325          -8.580965     -11.67643     -6.848256
 5             325          -11.70492     -14.76727     -9.96129 
 10            325          -13.25434     -16.21683     -11.47743
 15            325          -11.86169     -14.65603     -10.02759
 20            325          -10.82715     -13.38233     -8.90917 
 25            325          -11.17923     -13.4202      -9.146447
 30            325          -12.94776     -14.79384     -10.76314
 35            325          -16.14803     -17.51079     -13.76588
 40            325          -20.42766     -21.20821     -17.79012
 45            325          -22.5672      -22.65236     -19.59927
 50            325          -21.09548     -20.35229     -17.69771
 55            325          -19.9131      -18.18039     -15.9506 
 60            325          -19.80798     -16.88284     -15.09336
 65            325          -20.60725     -16.22168     -14.87262
 70            325          -22.18333     -15.95983     -15.03056
 75            325          -24.56776     -15.92314     -15.36696
 80            325          -28.09638     -15.98525     -15.72604
 85            325          -34.15649     -16.05787     -15.9911 
 90            325          -999          -16.088       -16.088  
 95            325          -34.15649     -16.05787     -15.9911 
 100           325          -28.09638     -15.98525     -15.72604
 105           325          -24.56776     -15.92314     -15.36696
 110           325          -22.18333     -15.95983     -15.03056
 115           325          -20.60725     -16.22168     -14.87262
 120           325          -19.80798     -16.88284     -15.09336
 125           325          -19.9131      -18.18039     -15.9506 
 130           325          -21.09548     -20.35229     -17.69771
 135           325          -22.5672      -22.65236     -19.59927
 140           325          -20.42766     -21.20821     -17.79012
 145           325          -16.14803     -17.51079     -13.76588
 150           325          -12.94776     -14.79384     -10.76314
 155           325          -11.17923     -13.4202      -9.146447
 160           325          -10.82715     -13.38233     -8.90917 
 165           325          -11.86169     -14.65603     -10.02759
 170           325          -13.25434     -16.21683     -11.47743
 175           325          -11.70492     -14.76727     -9.96129 
 180           325          -8.580965     -11.67643     -6.848256
 0             330          -8.097643     -12.86886     -6.848256
 5             330          -10.83181     -15.5699      -9.574117
 10            330          -12.80821     -17.44646     -11.5252 
 15            330          -12.16848     -16.63857     -10.84183
 20            330          -10.9592      -15.19013     -9.568314
 25            330          -10.64212     -14.55885     -9.162842
 30            330          -11.38675     -14.90857     -9.789737
 35            330          -13.15232     -16.19082     -11.40079
 40            330          -15.91566     -18.37195     -13.96212
 45            330          -19.56877     -21.32969     -17.35029
 50            330          -23.20284     -24.13541     -20.63384
 55            330          -24.52198     -24.46502     -21.48311
 60            330          -24.05729     -22.8079      -20.37752
 65            330          -23.90154     -21.19172     -19.32832
 70            330          -24.61716     -20.0694      -18.76306
 75            330          -26.32981     -19.36094     -18.56565
 80            330          -29.37926     -18.94388     -18.56778
 85            330          -35.15125     -18.72838     -18.63052
 90            330          -999          -18.66223     -18.66223
 95            330          -35.15125     -18.72838     -18.63052
 100           330          -29.37926     -18.94388     -18.56778
 105           330          -26.32981     -19.36094     -18.56565
 110           330          -24.61716     -20.0694      -18.76306
 115           330          -23.90154     -21.19172     -19.32832
 120           330          -24.05729     -22.8079      -20.37752
 125           330          -24.52198     -24.46502     -21.48311
 130           330          -23.20284     -24.13541     -20.63384
 135           330          -19.56877     -21.32969     -17.35029
 140           330          -15.91566     -18.37195     -13.96212
 145           330          -13.15232     -16.19082     -11.40079
 150           330          -11.38675     -14.90857     -9.789737
 155           330          -10.64212     -14.55885     -9.162842
 160           330          -10.9592      -15.19013     -9.568314
 165           330          -12.16848     -16.63857     -10.84183
 170           330          -12.80821     -17.44646     -11.5252 
 175           330          -10.83181     -15.5699      -9.574117
 180           330          -8.097643     -12.86886     -6.848256
 0             335          -7.702741     -14.32929     -6.848256
 5             335          -10.01096     -16.6044      -9.150546
 10            335          -12.13314     -18.62672     -11.2546 
 15            335          -12.48694     -18.81236     -11.57711
 20            335          -11.55282     -17.63909     -10.59677
 25            335          -10.83957     -16.61163     -9.819608
 30            335          -10.83899     -16.21615     -9.733348
 35            335          -11.57591     -16.46975     -10.35686
 40            335          -12.9959      -17.30753     -11.62698
 45            335          -15.04787     -18.66412     -13.4797 
 50            335          -17.68441     -20.47231     -15.8481 
 55            335          -20.82293     -22.6213      -18.61938
 60            335          -24.24716     -24.85311     -21.52928
 65            335          -27.49406     -26.63957     -24.03554
 70            335          -30.12566     -27.43324     -25.56376
 75            335          -32.45215     -27.33862     -26.17232
 80            335          -35.5025      -26.92245     -26.35846
 85            335          -41.14435     -26.57682     -26.42769
 90            335          -999          -26.45058     -26.45058
 95            335          -41.14435     -26.57682     -26.42769
 100           335          -35.5025      -26.92245     -26.35846
 105           335          -32.45215     -27.33862     -26.17232
 110           335          -30.12566     -27.43324     -25.56376
 115           335          -27.49406     -26.63957     -24.03554
 120           335          -24.24716     -24.85311     -21.52928
 125           335          -20.82293     -22.6213      -18.61938
 130           335          -17.68441     -20.47231     -15.8481 
 135           335          -15.04787     -18.66412     -13.4797 
 140           335          -12.9959      -17.30753     -11.62698
 145           335          -11.57591     -16.46975     -10.35686
 150           335          -10.83899     -16.21615     -9.733348
 155           335          -10.83957     -16.61163     -9.819608
 160           335          -11.55282     -17.63909     -10.59677
 165           335          -12.48694     -18.81236     -11.57711
 170           335          -12.13314     -18.62672     -11.2546 
 175           335          -10.01096     -16.6044      -9.150546
 180           335          -7.702741     -14.32929     -6.848256
 0             340          -7.388539     -16.16722     -6.848256
 5             340          -9.246944     -17.99251     -8.702774
 10            340          -11.21767     -19.86338     -10.66162
 15            340          -12.42196     -20.89952     -11.84535
 20            340          -12.35998     -20.59838     -11.75291
 25            340          -11.75731     -19.68151     -11.10794
 30            340          -11.36307     -18.89236     -10.65666
 35            340          -11.43        -18.47598     -10.64752
 40            340          -11.98153     -18.4453      -11.09752
 45            340          -12.98082     -18.74921     -11.9601 
 50            340          -14.38306     -19.32309     -13.17527
 55            340          -16.14924     -20.09975     -14.67969
 60            340          -18.25147     -21.00955     -16.40484
 65            340          -20.68091     -21.97856     -18.27115
 70            340          -23.46814     -22.92786     -20.1793 
 75            340          -26.73756     -23.77616     -21.99889
 80            340          -30.87454     -24.44662     -23.55599
 85            340          -37.29161     -24.87621     -24.63407
 90            340          -999          -25.02409     -25.02409
 95            340          -37.29161     -24.87621     -24.63407
 100           340          -30.87454     -24.44662     -23.55599
 105           340          -26.73756     -23.77616     -21.99889
 110           340          -23.46814     -22.92786     -20.1793 
 115           340          -20.68091     -21.97856     -18.27115
 120           340          -18.25147     -21.00955     -16.40484
 125           340          -16.14924     -20.09975     -14.67969
 130           340          -14.38306     -19.32309     -13.17527
 135           340          -12.98082     -18.74921     -11.9601 
 140           340          -11.98153     -18.4453      -11.09752
 145           340          -11.43        -18.47598     -10.64752
 150           340          -11.36307     -18.89236     -10.65666
 155           340          -11.75731     -19.68151     -11.10794
 160           340          -12.35998     -20.59838     -11.75291
 165           340          -12.42196     -20.89952     -11.84535
 170           340          -11.21767     -19.86338     -10.66162
 175           340          -9.246944     -17.99251     -8.702774
 180           340          -7.388539     -16.16722     -6.848256
 0             345          -7.14938      -18.58833     -6.848256
 5             345          -8.546848     -19.95268     -8.243497
 10            345          -10.14338     -21.44936     -9.833222
 15            345          -11.63567     -22.77349     -11.3137 
 20            345          -12.6067      -23.50537     -12.26721
 25            345          -12.89951     -23.48397     -12.53558
 30            345          -12.80887     -22.99844     -12.41184
 35            345          -12.7185      -22.42474     -12.27703
 40            345          -12.84383     -21.96786     -12.34256
 45            345          -13.26123     -21.68988     -12.67852
 50            345          -13.98506     -21.58536     -13.28924
 55            345          -15.01239     -21.62317     -14.15508
 60            345          -16.34573     -21.76408     -15.24931
 65            345          -18.00983     -21.96775     -16.5424 
 70            345          -20.07576     -22.19574     -17.99736
 75            345          -22.71458     -22.41345     -19.5511 
 80            345          -26.35927     -22.59162     -21.06878
 85            345          -32.46305     -22.70792     -22.27115
 90            345          -999          -22.74828     -22.74828
 95            345          -32.46305     -22.70792     -22.27115
 100           345          -26.35927     -22.59162     -21.06878
 105           345          -22.71458     -22.41345     -19.5511 
 110           345          -20.07576     -22.19574     -17.99736
 115           345          -18.00983     -21.96775     -16.5424 
 120           345          -16.34573     -21.76408     -15.24931
 125           345          -15.01239     -21.62317     -14.15508
 130           345          -13.98506     -21.58536     -13.28924
 135           345          -13.26123     -21.68988     -12.67852
 140           345          -12.84383     -21.96786     -12.34256
 145           345          -12.7185      -22.42474     -12.27703
 150           345          -12.80887     -22.99844     -12.41184
 155           345          -12.89951     -23.48397     -12.53558
 160           345          -12.6067      -23.50537     -12.26721
 165           345          -11.63567     -22.77349     -11.3137 
 170           345          -10.14338     -21.44936     -9.833222
 175           345          -8.546848     -19.95268     -8.243497
 180           345          -7.14938      -18.58833     -6.848256
 0             350          -6.981226     -22.05485     -6.848256
 5             350          -7.918691     -22.9592      -7.784718
 10            350          -9.030541     -23.97119     -8.8935  
 15            350          -10.2562      -25.0287      -10.11384
 20            350          -11.50179     -26.03513     -11.3515 
 25            350          -12.6518      -26.87094     -12.49045
 30            350          -13.61208     -27.43632     -13.43568
 35            350          -14.36431     -27.70522     -14.1676 
 40            350          -14.97761     -27.73631     -14.7534 
 45            350          -15.56462     -27.62794     -15.30262
 50            350          -16.2324      -27.46737     -15.91731
 55            350          -17.06459     -27.31004     -16.67241
 60            350          -18.12927     -27.18229     -17.62019
 65            350          -19.49868     -27.09127     -18.80171
 70            350          -21.27898     -27.03364     -20.25538
 75            350          -23.66801     -27.00156     -22.0122 
 80            350          -27.11927     -26.9863      -24.04198
 85            350          -33.10087     -26.98041     -26.0311 
 90            350          -999          -26.97902     -26.97902
 95            350          -33.10087     -26.98041     -26.0311 
 100           350          -27.11927     -26.9863      -24.04198
 105           350          -23.66801     -27.00156     -22.0122 
 110           350          -21.27898     -27.03364     -20.25538
 115           350          -19.49868     -27.09127     -18.80171
 120           350          -18.12927     -27.18229     -17.62019
 125           350          -17.06459     -27.31004     -16.67241
 130           350          -16.2324      -27.46737     -15.91731
 135           350          -15.56462     -27.62794     -15.30262
 140           350          -14.97761     -27.73631     -14.7534 
 145           350          -14.36431     -27.70522     -14.1676 
 150           350          -13.61208     -27.43632     -13.43568
 155           350          -12.6518      -26.87094     -12.49045
 160           350          -11.50179     -26.03513     -11.3515 
 165           350          -10.2562      -25.0287      -10.11384
 170           350          -9.030541     -23.97119     -8.8935  
 175           350          -7.918691     -22.9592      -7.784718
 180           350          -6.981226     -22.05485     -6.848256
 0             355          -6.881371     -28.04234     -6.848256
 5             355          -7.370315     -28.49816     -7.336947
 10            355          -7.983377     -29.01137     -7.949236
 15            355          -8.714748     -29.57459     -8.679264
 20            355          -9.557587     -30.17827     -9.520104
 25            355          -10.50439     -30.81086     -10.4641 
 30            355          -11.5476      -31.45918     -11.5035 
 35            355          -12.68066     -32.10892     -12.6314 
 40            355          -13.89939     -32.74543     -13.84311
 45            355          -15.2039      -33.35456     -15.13792
 50            355          -16.60119     -33.92351     -16.52148
 55            355          -18.1087      -34.44149     -18.00881
 60            355          -19.75978     -34.90014     -19.62881
 65            355          -21.61362     -35.29355     -21.43138
 70            355          -23.77594     -35.61794     -23.50067
 75            355          -26.45032     -35.87121     -25.98043
 80            355          -30.09801     -36.05238     -29.11558
 85            355          -36.19423     -36.16112     -33.16735
 90            355          -999          -36.19736     -36.19736
 95            355          -36.19423     -36.16112     -33.16735
 100           355          -30.09801     -36.05238     -29.11558
 105           355          -26.45032     -35.87121     -25.98043
 110           355          -23.77594     -35.61794     -23.50067
 115           355          -21.61362     -35.29355     -21.43138
 120           355          -19.75978     -34.90014     -19.62881
 125           355          -18.1087      -34.44149     -18.00881
 130           355          -16.60119     -33.92351     -16.52148
 135           355          -15.2039      -33.35456     -15.13792
 140           355          -13.89939     -32.74543     -13.84311
 145           355          -12.68066     -32.10892     -12.6314 
 150           355          -11.5476      -31.45918     -11.5035 
 155           355          -10.50439     -30.81086     -10.4641 
 160           355          -9.557587     -30.17827     -9.520104
 165           355          -8.714748     -29.57459     -8.679264
 170           355          -7.983377     -29.01137     -7.949236
 175           355          -7.370315     -28.49816     -7.336947
 180           355          -6.881371     -28.04234     -6.848256
 0             360          -6.848256     -999          -6.848256
 5             360          -6.908801     -999          -6.908801
 10            360          -7.070706     -999          -7.070706
 15            360          -7.333968     -999          -7.333968
 20            360          -7.69878      -999          -7.69878 
 25            360          -8.165765     -999          -8.165765
 30            360          -8.736342     -999          -8.736342
 35            360          -9.413273     -999          -9.413273
 40            360          -10.20147     -999          -10.20147
 45            360          -11.10922     -999          -11.10922
 50            360          -12.15005     -999          -12.15005
 55            360          -13.3458      -999          -13.3458 
 60            360          -14.73197     -999          -14.73197
 65            360          -16.36776     -999          -16.36776
 70            360          -18.35724     -999          -18.35724
 75            360          -20.90141     -999          -20.90141
 80            360          -24.45868     -999          -24.45868
 85            360          -30.50178     -999          -30.50178
 90            360          -999          -999          -999     
 95            360          -30.50178     -999          -30.50178
 100           360          -24.45868     -999          -24.45868
 105           360          -20.90141     -999          -20.90141
 110           360          -18.35724     -999          -18.35724
 115           360          -16.36776     -999          -16.36776
 120           360          -14.73197     -999          -14.73197
 125           360          -13.3458      -999          -13.3458 
 130           360          -12.15005     -999          -12.15005
 135           360          -11.10922     -999          -11.10922
 140           360          -10.20147     -999          -10.20147
 145           360          -9.413273     -999          -9.413273
 150           360          -8.736342     -999          -8.736342
 155           360          -8.165765     -999          -8.165765
 160           360          -7.69878      -999          -7.69878 
 165           360          -7.333968     -999          -7.333968
 170           360          -7.070706     -999          -7.070706
 175           360          -6.908801     -999          -6.908801
 180           360          -6.848256     -999          -6.848256
