


                               __________________________________________
                              |                                          |
                              |  NUMERICAL ELECTROMAGNETICS CODE (nec2c) |
                              |   Translated to 'C' in Double Precision  |
                              |__________________________________________|



                               ---------------- COMMENTS ----------------
                               http://on5au.be/content/amod/amod48.html
                               and minor corrections to make elements symmetric
                               currently without loads
                              



                               -------- STRUCTURE SPECIFICATION --------
                                     COORDINATES MUST BE INPUT IN
                                     METERS OR BE SCALED TO METERS
                                     BEFORE STRUCTURE INPUT IS ENDED

  WIRE                                                                                 SEG FIRST  LAST  TAG
   No:        X1         Y1         Z1         X2         Y2         Z2       RADIUS   No:   SEG   SEG  No:
     1    -0.51943    0.00000    0.00000    0.51943    0.00000    0.00000    0.00238    21     1    21    1
     2    -0.50165    0.22331    0.00000    0.50165    0.22331    0.00000    0.00238    21    22    42    2
     3    -0.46991    0.34215    0.00000    0.46991    0.34215    0.00000    0.00238    21    43    63    3
     4    -0.46136    0.64461    0.00000    0.46136    0.64461    0.00000    0.00238    21    64    84    4
     5    -0.46224    1.03434    0.00000    0.46224    1.03434    0.00000    0.00238    21    85   105    5
     6    -0.45989    1.55909    0.00000    0.45989    1.55909    0.00000    0.00238    21   106   126    7
     7    -0.44704    2.19682    0.00000    0.44704    2.19682    0.00000    0.00238    21   127   147    8
     8    -0.43561    2.94640    0.00000    0.43561    2.94640    0.00000    0.00238    21   148   168    9
     9    -0.42672    3.72364    0.00000    0.42672    3.72364    0.00000    0.00238    21   169   189   10
    10    -0.41783    4.53136    0.00000    0.41783    4.53136    0.00000    0.00238    21   190   210   11
    11    -0.40894    5.33400    0.00000    0.40894    5.33400    0.00000    0.00238    21   211   231   12
    12    -0.39624    6.04520    0.00000    0.39624    6.04520    0.00000    0.00238    21   232   252   13

     TOTAL SEGMENTS USED: 252   SEGMENTS IN A SYMMETRIC CELL: 252   SYMMETRY FLAG: 0


                               ---------- SEGMENTATION DATA ----------
                                        COORDINATES IN METERS
                            I+ AND I- INDICATE THE SEGMENTS BEFORE AND AFTER I

   SEG    COORDINATES OF SEGM CENTER     SEGM    ORIENTATION ANGLES    WIRE    CONNECTION DATA   TAG
   No:       X         Y         Z      LENGTH     ALPHA      BETA    RADIUS    I-     I    I+   No:
     1   -0.4947    0.0000    0.0000    0.0495    0.0000    0.0000    0.0024     0     1     2     1
     2   -0.4452    0.0000    0.0000    0.0495    0.0000    0.0000    0.0024     1     2     3     1
     3   -0.3958    0.0000    0.0000    0.0495    0.0000    0.0000    0.0024     2     3     4     1
     4   -0.3463    0.0000    0.0000    0.0495    0.0000    0.0000    0.0024     3     4     5     1
     5   -0.2968    0.0000    0.0000    0.0495    0.0000    0.0000    0.0024     4     5     6     1
     6   -0.2473    0.0000    0.0000    0.0495    0.0000    0.0000    0.0024     5     6     7     1
     7   -0.1979    0.0000    0.0000    0.0495    0.0000    0.0000    0.0024     6     7     8     1
     8   -0.1484    0.0000    0.0000    0.0495    0.0000    0.0000    0.0024     7     8     9     1
     9   -0.0989    0.0000    0.0000    0.0495    0.0000    0.0000    0.0024     8     9    10     1
    10   -0.0495    0.0000    0.0000    0.0495    0.0000    0.0000    0.0024     9    10    11     1
    11   -0.0000    0.0000    0.0000    0.0495    0.0000    0.0000    0.0024    10    11    12     1
    12    0.0495    0.0000    0.0000    0.0495    0.0000    0.0000    0.0024    11    12    13     1
    13    0.0989    0.0000    0.0000    0.0495    0.0000    0.0000    0.0024    12    13    14     1
    14    0.1484    0.0000    0.0000    0.0495    0.0000    0.0000    0.0024    13    14    15     1
    15    0.1979    0.0000    0.0000    0.0495    0.0000    0.0000    0.0024    14    15    16     1
    16    0.2473    0.0000    0.0000    0.0495    0.0000    0.0000    0.0024    15    16    17     1
    17    0.2968    0.0000    0.0000    0.0495    0.0000    0.0000    0.0024    16    17    18     1
    18    0.3463    0.0000    0.0000    0.0495    0.0000    0.0000    0.0024    17    18    19     1
    19    0.3958    0.0000    0.0000    0.0495    0.0000    0.0000    0.0024    18    19    20     1
    20    0.4452    0.0000    0.0000    0.0495    0.0000    0.0000    0.0024    19    20    21     1
    21    0.4947    0.0000    0.0000    0.0495    0.0000    0.0000    0.0024    20    21     0     1
    22   -0.4778    0.2233    0.0000    0.0478    0.0000    0.0000    0.0024     0    22    23     2
    23   -0.4300    0.2233    0.0000    0.0478    0.0000    0.0000    0.0024    22    23    24     2
    24   -0.3822    0.2233    0.0000    0.0478    0.0000    0.0000    0.0024    23    24    25     2
    25   -0.3344    0.2233    0.0000    0.0478    0.0000    0.0000    0.0024    24    25    26     2
    26   -0.2867    0.2233    0.0000    0.0478    0.0000    0.0000    0.0024    25    26    27     2
    27   -0.2389    0.2233    0.0000    0.0478    0.0000    0.0000    0.0024    26    27    28     2
    28   -0.1911    0.2233    0.0000    0.0478    0.0000    0.0000    0.0024    27    28    29     2
    29   -0.1433    0.2233    0.0000    0.0478    0.0000    0.0000    0.0024    28    29    30     2
    30   -0.0956    0.2233    0.0000    0.0478    0.0000    0.0000    0.0024    29    30    31     2
    31   -0.0478    0.2233    0.0000    0.0478    0.0000    0.0000    0.0024    30    31    32     2
    32   -0.0000    0.2233    0.0000    0.0478    0.0000    0.0000    0.0024    31    32    33     2
    33    0.0478    0.2233    0.0000    0.0478    0.0000    0.0000    0.0024    32    33    34     2
    34    0.0956    0.2233    0.0000    0.0478    0.0000    0.0000    0.0024    33    34    35     2
    35    0.1433    0.2233    0.0000    0.0478    0.0000    0.0000    0.0024    34    35    36     2
    36    0.1911    0.2233    0.0000    0.0478    0.0000    0.0000    0.0024    35    36    37     2
    37    0.2389    0.2233    0.0000    0.0478    0.0000    0.0000    0.0024    36    37    38     2
    38    0.2867    0.2233    0.0000    0.0478    0.0000    0.0000    0.0024    37    38    39     2
    39    0.3344    0.2233    0.0000    0.0478    0.0000    0.0000    0.0024    38    39    40     2
    40    0.3822    0.2233    0.0000    0.0478    0.0000    0.0000    0.0024    39    40    41     2
    41    0.4300    0.2233    0.0000    0.0478    0.0000    0.0000    0.0024    40    41    42     2
    42    0.4778    0.2233    0.0000    0.0478    0.0000    0.0000    0.0024    41    42     0     2
    43   -0.4475    0.3422    0.0000    0.0448    0.0000    0.0000    0.0024     0    43    44     3
    44   -0.4028    0.3422    0.0000    0.0448    0.0000    0.0000    0.0024    43    44    45     3
    45   -0.3580    0.3422    0.0000    0.0448    0.0000    0.0000    0.0024    44    45    46     3
    46   -0.3133    0.3422    0.0000    0.0448    0.0000    0.0000    0.0024    45    46    47     3
    47   -0.2685    0.3422    0.0000    0.0448    0.0000    0.0000    0.0024    46    47    48     3
    48   -0.2238    0.3422    0.0000    0.0448    0.0000    0.0000    0.0024    47    48    49     3
    49   -0.1790    0.3422    0.0000    0.0448    0.0000    0.0000    0.0024    48    49    50     3
    50   -0.1343    0.3422    0.0000    0.0448    0.0000    0.0000    0.0024    49    50    51     3
    51   -0.0895    0.3422    0.0000    0.0448    0.0000    0.0000    0.0024    50    51    52     3
    52   -0.0448    0.3422    0.0000    0.0448    0.0000    0.0000    0.0024    51    52    53     3
    53   -0.0000    0.3422    0.0000    0.0448    0.0000    0.0000    0.0024    52    53    54     3
    54    0.0448    0.3422    0.0000    0.0448    0.0000    0.0000    0.0024    53    54    55     3
    55    0.0895    0.3422    0.0000    0.0448    0.0000    0.0000    0.0024    54    55    56     3
    56    0.1343    0.3422    0.0000    0.0448    0.0000    0.0000    0.0024    55    56    57     3
    57    0.1790    0.3422    0.0000    0.0448    0.0000    0.0000    0.0024    56    57    58     3
    58    0.2238    0.3422    0.0000    0.0448    0.0000    0.0000    0.0024    57    58    59     3
    59    0.2685    0.3422    0.0000    0.0448    0.0000    0.0000    0.0024    58    59    60     3
    60    0.3133    0.3422    0.0000    0.0448    0.0000    0.0000    0.0024    59    60    61     3
    61    0.3580    0.3422    0.0000    0.0448    0.0000    0.0000    0.0024    60    61    62     3
    62    0.4028    0.3422    0.0000    0.0448    0.0000    0.0000    0.0024    61    62    63     3
    63    0.4475    0.3422    0.0000    0.0448    0.0000    0.0000    0.0024    62    63     0     3
    64   -0.4394    0.6446    0.0000    0.0439    0.0000    0.0000    0.0024     0    64    65     4
    65   -0.3955    0.6446    0.0000    0.0439    0.0000    0.0000    0.0024    64    65    66     4
    66   -0.3515    0.6446    0.0000    0.0439    0.0000    0.0000    0.0024    65    66    67     4
    67   -0.3076    0.6446    0.0000    0.0439    0.0000    0.0000    0.0024    66    67    68     4
    68   -0.2636    0.6446    0.0000    0.0439    0.0000    0.0000    0.0024    67    68    69     4
    69   -0.2197    0.6446    0.0000    0.0439    0.0000    0.0000    0.0024    68    69    70     4
    70   -0.1758    0.6446    0.0000    0.0439    0.0000    0.0000    0.0024    69    70    71     4
    71   -0.1318    0.6446    0.0000    0.0439    0.0000    0.0000    0.0024    70    71    72     4
    72   -0.0879    0.6446    0.0000    0.0439    0.0000    0.0000    0.0024    71    72    73     4
    73   -0.0439    0.6446    0.0000    0.0439    0.0000    0.0000    0.0024    72    73    74     4
    74   -0.0000    0.6446    0.0000    0.0439    0.0000    0.0000    0.0024    73    74    75     4
    75    0.0439    0.6446    0.0000    0.0439    0.0000    0.0000    0.0024    74    75    76     4
    76    0.0879    0.6446    0.0000    0.0439    0.0000    0.0000    0.0024    75    76    77     4
    77    0.1318    0.6446    0.0000    0.0439    0.0000    0.0000    0.0024    76    77    78     4
    78    0.1758    0.6446    0.0000    0.0439    0.0000    0.0000    0.0024    77    78    79     4
    79    0.2197    0.6446    0.0000    0.0439    0.0000    0.0000    0.0024    78    79    80     4
    80    0.2636    0.6446    0.0000    0.0439    0.0000    0.0000    0.0024    79    80    81     4
    81    0.3076    0.6446    0.0000    0.0439    0.0000    0.0000    0.0024    80    81    82     4
    82    0.3515    0.6446    0.0000    0.0439    0.0000    0.0000    0.0024    81    82    83     4
    83    0.3955    0.6446    0.0000    0.0439    0.0000    0.0000    0.0024    82    83    84     4
    84    0.4394    0.6446    0.0000    0.0439    0.0000    0.0000    0.0024    83    84     0     4
    85   -0.4402    1.0343    0.0000    0.0440    0.0000    0.0000    0.0024     0    85    86     5
    86   -0.3962    1.0343    0.0000    0.0440    0.0000    0.0000    0.0024    85    86    87     5
    87   -0.3522    1.0343    0.0000    0.0440    0.0000    0.0000    0.0024    86    87    88     5
    88   -0.3082    1.0343    0.0000    0.0440    0.0000    0.0000    0.0024    87    88    89     5
    89   -0.2641    1.0343    0.0000    0.0440    0.0000    0.0000    0.0024    88    89    90     5
    90   -0.2201    1.0343    0.0000    0.0440    0.0000    0.0000    0.0024    89    90    91     5
    91   -0.1761    1.0343    0.0000    0.0440    0.0000    0.0000    0.0024    90    91    92     5
    92   -0.1321    1.0343    0.0000    0.0440    0.0000    0.0000    0.0024    91    92    93     5
    93   -0.0880    1.0343    0.0000    0.0440    0.0000    0.0000    0.0024    92    93    94     5
    94   -0.0440    1.0343    0.0000    0.0440    0.0000    0.0000    0.0024    93    94    95     5
    95    0.0000    1.0343    0.0000    0.0440    0.0000    0.0000    0.0024    94    95    96     5
    96    0.0440    1.0343    0.0000    0.0440    0.0000    0.0000    0.0024    95    96    97     5
    97    0.0880    1.0343    0.0000    0.0440    0.0000    0.0000    0.0024    96    97    98     5
    98    0.1321    1.0343    0.0000    0.0440    0.0000    0.0000    0.0024    97    98    99     5
    99    0.1761    1.0343    0.0000    0.0440    0.0000    0.0000    0.0024    98    99   100     5
   100    0.2201    1.0343    0.0000    0.0440    0.0000    0.0000    0.0024    99   100   101     5
   101    0.2641    1.0343    0.0000    0.0440    0.0000    0.0000    0.0024   100   101   102     5
   102    0.3082    1.0343    0.0000    0.0440    0.0000    0.0000    0.0024   101   102   103     5
   103    0.3522    1.0343    0.0000    0.0440    0.0000    0.0000    0.0024   102   103   104     5
   104    0.3962    1.0343    0.0000    0.0440    0.0000    0.0000    0.0024   103   104   105     5
   105    0.4402    1.0343    0.0000    0.0440    0.0000    0.0000    0.0024   104   105     0     5
   106   -0.4380    1.5591    0.0000    0.0438    0.0000    0.0000    0.0024     0   106   107     7
   107   -0.3942    1.5591    0.0000    0.0438    0.0000    0.0000    0.0024   106   107   108     7
   108   -0.3504    1.5591    0.0000    0.0438    0.0000    0.0000    0.0024   107   108   109     7
   109   -0.3066    1.5591    0.0000    0.0438    0.0000    0.0000    0.0024   108   109   110     7
   110   -0.2628    1.5591    0.0000    0.0438    0.0000    0.0000    0.0024   109   110   111     7
   111   -0.2190    1.5591    0.0000    0.0438    0.0000    0.0000    0.0024   110   111   112     7
   112   -0.1752    1.5591    0.0000    0.0438    0.0000    0.0000    0.0024   111   112   113     7
   113   -0.1314    1.5591    0.0000    0.0438    0.0000    0.0000    0.0024   112   113   114     7
   114   -0.0876    1.5591    0.0000    0.0438    0.0000    0.0000    0.0024   113   114   115     7
   115   -0.0438    1.5591    0.0000    0.0438    0.0000    0.0000    0.0024   114   115   116     7
   116    0.0000    1.5591    0.0000    0.0438    0.0000    0.0000    0.0024   115   116   117     7
   117    0.0438    1.5591    0.0000    0.0438    0.0000    0.0000    0.0024   116   117   118     7
   118    0.0876    1.5591    0.0000    0.0438    0.0000    0.0000    0.0024   117   118   119     7
   119    0.1314    1.5591    0.0000    0.0438    0.0000    0.0000    0.0024   118   119   120     7
   120    0.1752    1.5591    0.0000    0.0438    0.0000    0.0000    0.0024   119   120   121     7
   121    0.2190    1.5591    0.0000    0.0438    0.0000    0.0000    0.0024   120   121   122     7
   122    0.2628    1.5591    0.0000    0.0438    0.0000    0.0000    0.0024   121   122   123     7
   123    0.3066    1.5591    0.0000    0.0438    0.0000    0.0000    0.0024   122   123   124     7
   124    0.3504    1.5591    0.0000    0.0438    0.0000    0.0000    0.0024   123   124   125     7
   125    0.3942    1.5591    0.0000    0.0438    0.0000    0.0000    0.0024   124   125   126     7
   126    0.4380    1.5591    0.0000    0.0438    0.0000    0.0000    0.0024   125   126     0     7
   127   -0.4258    2.1968    0.0000    0.0426    0.0000    0.0000    0.0024     0   127   128     8
   128   -0.3832    2.1968    0.0000    0.0426    0.0000    0.0000    0.0024   127   128   129     8
   129   -0.3406    2.1968    0.0000    0.0426    0.0000    0.0000    0.0024   128   129   130     8
   130   -0.2980    2.1968    0.0000    0.0426    0.0000    0.0000    0.0024   129   130   131     8
   131   -0.2555    2.1968    0.0000    0.0426    0.0000    0.0000    0.0024   130   131   132     8
   132   -0.2129    2.1968    0.0000    0.0426    0.0000    0.0000    0.0024   131   132   133     8
   133   -0.1703    2.1968    0.0000    0.0426    0.0000    0.0000    0.0024   132   133   134     8
   134   -0.1277    2.1968    0.0000    0.0426    0.0000    0.0000    0.0024   133   134   135     8
   135   -0.0852    2.1968    0.0000    0.0426    0.0000    0.0000    0.0024   134   135   136     8
   136   -0.0426    2.1968    0.0000    0.0426    0.0000    0.0000    0.0024   135   136   137     8
   137    0.0000    2.1968    0.0000    0.0426    0.0000    0.0000    0.0024   136   137   138     8
   138    0.0426    2.1968    0.0000    0.0426    0.0000    0.0000    0.0024   137   138   139     8
   139    0.0852    2.1968    0.0000    0.0426    0.0000    0.0000    0.0024   138   139   140     8
   140    0.1277    2.1968    0.0000    0.0426    0.0000    0.0000    0.0024   139   140   141     8
   141    0.1703    2.1968    0.0000    0.0426    0.0000    0.0000    0.0024   140   141   142     8
   142    0.2129    2.1968    0.0000    0.0426    0.0000    0.0000    0.0024   141   142   143     8
   143    0.2555    2.1968    0.0000    0.0426    0.0000    0.0000    0.0024   142   143   144     8
   144    0.2980    2.1968    0.0000    0.0426    0.0000    0.0000    0.0024   143   144   145     8
   145    0.3406    2.1968    0.0000    0.0426    0.0000    0.0000    0.0024   144   145   146     8
   146    0.3832    2.1968    0.0000    0.0426    0.0000    0.0000    0.0024   145   146   147     8
   147    0.4258    2.1968    0.0000    0.0426    0.0000    0.0000    0.0024   146   147     0     8
   148   -0.4149    2.9464    0.0000    0.0415    0.0000    0.0000    0.0024     0   148   149     9
   149   -0.3734    2.9464    0.0000    0.0415    0.0000    0.0000    0.0024   148   149   150     9
   150   -0.3319    2.9464    0.0000    0.0415    0.0000    0.0000    0.0024   149   150   151     9
   151   -0.2904    2.9464    0.0000    0.0415    0.0000    0.0000    0.0024   150   151   152     9
   152   -0.2489    2.9464    0.0000    0.0415    0.0000    0.0000    0.0024   151   152   153     9
   153   -0.2074    2.9464    0.0000    0.0415    0.0000    0.0000    0.0024   152   153   154     9
   154   -0.1659    2.9464    0.0000    0.0415    0.0000    0.0000    0.0024   153   154   155     9
   155   -0.1245    2.9464    0.0000    0.0415    0.0000    0.0000    0.0024   154   155   156     9
   156   -0.0830    2.9464    0.0000    0.0415    0.0000    0.0000    0.0024   155   156   157     9
   157   -0.0415    2.9464    0.0000    0.0415    0.0000    0.0000    0.0024   156   157   158     9
   158    0.0000    2.9464    0.0000    0.0415    0.0000    0.0000    0.0024   157   158   159     9
   159    0.0415    2.9464    0.0000    0.0415    0.0000    0.0000    0.0024   158   159   160     9
   160    0.0830    2.9464    0.0000    0.0415    0.0000    0.0000    0.0024   159   160   161     9
   161    0.1245    2.9464    0.0000    0.0415    0.0000    0.0000    0.0024   160   161   162     9
   162    0.1659    2.9464    0.0000    0.0415    0.0000    0.0000    0.0024   161   162   163     9
   163    0.2074    2.9464    0.0000    0.0415    0.0000    0.0000    0.0024   162   163   164     9
   164    0.2489    2.9464    0.0000    0.0415    0.0000    0.0000    0.0024   163   164   165     9
   165    0.2904    2.9464    0.0000    0.0415    0.0000    0.0000    0.0024   164   165   166     9
   166    0.3319    2.9464    0.0000    0.0415    0.0000    0.0000    0.0024   165   166   167     9
   167    0.3734    2.9464    0.0000    0.0415    0.0000    0.0000    0.0024   166   167   168     9
   168    0.4149    2.9464    0.0000    0.0415    0.0000    0.0000    0.0024   167   168     0     9
   169   -0.4064    3.7236    0.0000    0.0406    0.0000    0.0000    0.0024     0   169   170    10
   170   -0.3658    3.7236    0.0000    0.0406    0.0000    0.0000    0.0024   169   170   171    10
   171   -0.3251    3.7236    0.0000    0.0406    0.0000    0.0000    0.0024   170   171   172    10
   172   -0.2845    3.7236    0.0000    0.0406    0.0000    0.0000    0.0024   171   172   173    10
   173   -0.2438    3.7236    0.0000    0.0406    0.0000    0.0000    0.0024   172   173   174    10
   174   -0.2032    3.7236    0.0000    0.0406    0.0000    0.0000    0.0024   173   174   175    10
   175   -0.1626    3.7236    0.0000    0.0406    0.0000    0.0000    0.0024   174   175   176    10
   176   -0.1219    3.7236    0.0000    0.0406    0.0000    0.0000    0.0024   175   176   177    10
   177   -0.0813    3.7236    0.0000    0.0406    0.0000    0.0000    0.0024   176   177   178    10
   178   -0.0406    3.7236    0.0000    0.0406    0.0000    0.0000    0.0024   177   178   179    10
   179    0.0000    3.7236    0.0000    0.0406    0.0000    0.0000    0.0024   178   179   180    10
   180    0.0406    3.7236    0.0000    0.0406    0.0000    0.0000    0.0024   179   180   181    10
   181    0.0813    3.7236    0.0000    0.0406    0.0000    0.0000    0.0024   180   181   182    10
   182    0.1219    3.7236    0.0000    0.0406    0.0000    0.0000    0.0024   181   182   183    10
   183    0.1626    3.7236    0.0000    0.0406    0.0000    0.0000    0.0024   182   183   184    10
   184    0.2032    3.7236    0.0000    0.0406    0.0000    0.0000    0.0024   183   184   185    10
   185    0.2438    3.7236    0.0000    0.0406    0.0000    0.0000    0.0024   184   185   186    10
   186    0.2845    3.7236    0.0000    0.0406    0.0000    0.0000    0.0024   185   186   187    10
   187    0.3251    3.7236    0.0000    0.0406    0.0000    0.0000    0.0024   186   187   188    10
   188    0.3658    3.7236    0.0000    0.0406    0.0000    0.0000    0.0024   187   188   189    10
   189    0.4064    3.7236    0.0000    0.0406    0.0000    0.0000    0.0024   188   189     0    10
   190   -0.3979    4.5314    0.0000    0.0398    0.0000    0.0000    0.0024     0   190   191    11
   191   -0.3581    4.5314    0.0000    0.0398    0.0000    0.0000    0.0024   190   191   192    11
   192   -0.3183    4.5314    0.0000    0.0398    0.0000    0.0000    0.0024   191   192   193    11
   193   -0.2786    4.5314    0.0000    0.0398    0.0000    0.0000    0.0024   192   193   194    11
   194   -0.2388    4.5314    0.0000    0.0398    0.0000    0.0000    0.0024   193   194   195    11
   195   -0.1990    4.5314    0.0000    0.0398    0.0000    0.0000    0.0024   194   195   196    11
   196   -0.1592    4.5314    0.0000    0.0398    0.0000    0.0000    0.0024   195   196   197    11
   197   -0.1194    4.5314    0.0000    0.0398    0.0000    0.0000    0.0024   196   197   198    11
   198   -0.0796    4.5314    0.0000    0.0398    0.0000    0.0000    0.0024   197   198   199    11
   199   -0.0398    4.5314    0.0000    0.0398    0.0000    0.0000    0.0024   198   199   200    11
   200    0.0000    4.5314    0.0000    0.0398    0.0000    0.0000    0.0024   199   200   201    11
   201    0.0398    4.5314    0.0000    0.0398    0.0000    0.0000    0.0024   200   201   202    11
   202    0.0796    4.5314    0.0000    0.0398    0.0000    0.0000    0.0024   201   202   203    11
   203    0.1194    4.5314    0.0000    0.0398    0.0000    0.0000    0.0024   202   203   204    11
   204    0.1592    4.5314    0.0000    0.0398    0.0000    0.0000    0.0024   203   204   205    11
   205    0.1990    4.5314    0.0000    0.0398    0.0000    0.0000    0.0024   204   205   206    11
   206    0.2388    4.5314    0.0000    0.0398    0.0000    0.0000    0.0024   205   206   207    11
   207    0.2786    4.5314    0.0000    0.0398    0.0000    0.0000    0.0024   206   207   208    11
   208    0.3183    4.5314    0.0000    0.0398    0.0000    0.0000    0.0024   207   208   209    11
   209    0.3581    4.5314    0.0000    0.0398    0.0000    0.0000    0.0024   208   209   210    11
   210    0.3979    4.5314    0.0000    0.0398    0.0000    0.0000    0.0024   209   210     0    11
   211   -0.3895    5.3340    0.0000    0.0389    0.0000    0.0000    0.0024     0   211   212    12
   212   -0.3505    5.3340    0.0000    0.0389    0.0000    0.0000    0.0024   211   212   213    12
   213   -0.3116    5.3340    0.0000    0.0389    0.0000    0.0000    0.0024   212   213   214    12
   214   -0.2726    5.3340    0.0000    0.0389    0.0000    0.0000    0.0024   213   214   215    12
   215   -0.2337    5.3340    0.0000    0.0389    0.0000    0.0000    0.0024   214   215   216    12
   216   -0.1947    5.3340    0.0000    0.0389    0.0000    0.0000    0.0024   215   216   217    12
   217   -0.1558    5.3340    0.0000    0.0389    0.0000    0.0000    0.0024   216   217   218    12
   218   -0.1168    5.3340    0.0000    0.0389    0.0000    0.0000    0.0024   217   218   219    12
   219   -0.0779    5.3340    0.0000    0.0389    0.0000    0.0000    0.0024   218   219   220    12
   220   -0.0389    5.3340    0.0000    0.0389    0.0000    0.0000    0.0024   219   220   221    12
   221    0.0000    5.3340    0.0000    0.0389    0.0000    0.0000    0.0024   220   221   222    12
   222    0.0389    5.3340    0.0000    0.0389    0.0000    0.0000    0.0024   221   222   223    12
   223    0.0779    5.3340    0.0000    0.0389    0.0000    0.0000    0.0024   222   223   224    12
   224    0.1168    5.3340    0.0000    0.0389    0.0000    0.0000    0.0024   223   224   225    12
   225    0.1558    5.3340    0.0000    0.0389    0.0000    0.0000    0.0024   224   225   226    12
   226    0.1947    5.3340    0.0000    0.0389    0.0000    0.0000    0.0024   225   226   227    12
   227    0.2337    5.3340    0.0000    0.0389    0.0000    0.0000    0.0024   226   227   228    12
   228    0.2726    5.3340    0.0000    0.0389    0.0000    0.0000    0.0024   227   228   229    12
   229    0.3116    5.3340    0.0000    0.0389    0.0000    0.0000    0.0024   228   229   230    12
   230    0.3505    5.3340    0.0000    0.0389    0.0000    0.0000    0.0024   229   230   231    12
   231    0.3895    5.3340    0.0000    0.0389    0.0000    0.0000    0.0024   230   231     0    12
   232   -0.3774    6.0452    0.0000    0.0377    0.0000    0.0000    0.0024     0   232   233    13
   233   -0.3396    6.0452    0.0000    0.0377    0.0000    0.0000    0.0024   232   233   234    13
   234   -0.3019    6.0452    0.0000    0.0377    0.0000    0.0000    0.0024   233   234   235    13
   235   -0.2642    6.0452    0.0000    0.0377    0.0000    0.0000    0.0024   234   235   236    13
   236   -0.2264    6.0452    0.0000    0.0377    0.0000    0.0000    0.0024   235   236   237    13
   237   -0.1887    6.0452    0.0000    0.0377    0.0000    0.0000    0.0024   236   237   238    13
   238   -0.1509    6.0452    0.0000    0.0377    0.0000    0.0000    0.0024   237   238   239    13
   239   -0.1132    6.0452    0.0000    0.0377    0.0000    0.0000    0.0024   238   239   240    13
   240   -0.0755    6.0452    0.0000    0.0377    0.0000    0.0000    0.0024   239   240   241    13
   241   -0.0377    6.0452    0.0000    0.0377    0.0000    0.0000    0.0024   240   241   242    13
   242    0.0000    6.0452    0.0000    0.0377    0.0000    0.0000    0.0024   241   242   243    13
   243    0.0377    6.0452    0.0000    0.0377    0.0000    0.0000    0.0024   242   243   244    13
   244    0.0755    6.0452    0.0000    0.0377    0.0000    0.0000    0.0024   243   244   245    13
   245    0.1132    6.0452    0.0000    0.0377    0.0000    0.0000    0.0024   244   245   246    13
   246    0.1509    6.0452    0.0000    0.0377    0.0000    0.0000    0.0024   245   246   247    13
   247    0.1887    6.0452    0.0000    0.0377    0.0000    0.0000    0.0024   246   247   248    13
   248    0.2264    6.0452    0.0000    0.0377    0.0000    0.0000    0.0024   247   248   249    13
   249    0.2642    6.0452    0.0000    0.0377    0.0000    0.0000    0.0024   248   249   250    13
   250    0.3019    6.0452    0.0000    0.0377    0.0000    0.0000    0.0024   249   250   251    13
   251    0.3396    6.0452    0.0000    0.0377    0.0000    0.0000    0.0024   250   251   252    13
   252    0.3774    6.0452    0.0000    0.0377    0.0000    0.0000    0.0024   251   252     0    13



  DATA CARD No:   1 FR   0     3     0     0  1.47500E+02  5.00000E-01  0.00000E+00  0.00000E+00  0.00000E+00  0.00000E+00
  DATA CARD No:   2 EX   0     2    11     0  1.00000E+00  0.00000E+00  0.00000E+00  0.00000E+00  0.00000E+00  0.00000E+00
  DATA CARD No:   3 RP   0    37    73  1000  0.00000E+00  0.00000E+00  5.00000E+00  5.00000E+00  0.00000E+00  0.00000E+00


                               --------- FREQUENCY --------
                                FREQUENCY : 1.4750E+02 MHz
                                WAVELENGTH: 2.0325E+00 Mtr

                        APPROXIMATE INTEGRATION EMPLOYED FOR SEGMENTS 
                        THAT ARE MORE THAN 1.000 WAVELENGTHS APART


                          ------ STRUCTURE IMPEDANCE LOADING ------
                                 THIS STRUCTURE IS NOT LOADED


                            -------- ANTENNA ENVIRONMENT --------
                            FREE SPACE


                             ---------- MATRIX TIMING ----------
                               FILL: 20 msec  FACTOR: 10 msec


                        --------- ANTENNA INPUT PARAMETERS ---------
  TAG   SEG       VOLTAGE (VOLTS)         CURRENT (AMPS)         IMPEDANCE (OHMS)        ADMITTANCE (MHOS)     POWER
  No:   No:     REAL      IMAGINARY     REAL      IMAGINARY     REAL      IMAGINARY    REAL       IMAGINARY   (WATTS)
    2    32  1.0000E+00  0.0000E+00  2.0692E-02 -3.7304E-05  4.8329E+01  8.7129E-02  2.0692E-02 -3.7304E-05  1.0346E-02


                           -------- CURRENTS AND LOCATION --------
                                  DISTANCES IN WAVELENGTHS

   SEG  TAG    COORDINATES OF SEGM CENTER     SEGM    ------------- CURRENT (AMPS) -------------
   No:  No:       X         Y         Z      LENGTH     REAL      IMAGINARY    MAGN        PHASE
     1    1   -0.2434    0.0000    0.0000   0.02434  9.6707E-05  8.9199E-04  8.9722E-04   83.812
     2    1   -0.2190    0.0000    0.0000   0.02434  2.1836E-04  2.2588E-03  2.2693E-03   84.478
     3    1   -0.1947    0.0000    0.0000   0.02434  2.9953E-04  3.4848E-03  3.4977E-03   85.087
     4    1   -0.1704    0.0000    0.0000   0.02434  3.5530E-04  4.6235E-03  4.6371E-03   85.606
     5    1   -0.1460    0.0000    0.0000   0.02434  3.9288E-04  5.6619E-03  5.6756E-03   86.031
     6    1   -0.1217    0.0000    0.0000   0.02434  4.1772E-04  6.5811E-03  6.5944E-03   86.368
     7    1   -0.0974    0.0000    0.0000   0.02434  4.3380E-04  7.3619E-03  7.3746E-03   86.628
     8    1   -0.0730    0.0000    0.0000   0.02434  4.4391E-04  7.9871E-03  7.9994E-03   86.819
     9    1   -0.0487    0.0000    0.0000   0.02434  4.4993E-04  8.4432E-03  8.4552E-03   86.950
    10    1   -0.0243    0.0000    0.0000   0.02434  4.5310E-04  8.7206E-03  8.7323E-03   87.026
    11    1   -0.0000    0.0000    0.0000   0.02434  4.5409E-04  8.8136E-03  8.8253E-03   87.051
    12    1    0.0243    0.0000    0.0000   0.02434  4.5310E-04  8.7206E-03  8.7323E-03   87.026
    13    1    0.0487    0.0000    0.0000   0.02434  4.4993E-04  8.4432E-03  8.4552E-03   86.950
    14    1    0.0730    0.0000    0.0000   0.02434  4.4391E-04  7.9871E-03  7.9994E-03   86.819
    15    1    0.0974    0.0000    0.0000   0.02434  4.3380E-04  7.3619E-03  7.3746E-03   86.628
    16    1    0.1217    0.0000    0.0000   0.02434  4.1773E-04  6.5811E-03  6.5944E-03   86.368
    17    1    0.1460    0.0000    0.0000   0.02434  3.9288E-04  5.6619E-03  5.6756E-03   86.031
    18    1    0.1704    0.0000    0.0000   0.02434  3.5530E-04  4.6235E-03  4.6371E-03   85.606
    19    1    0.1947    0.0000    0.0000   0.02434  2.9953E-04  3.4848E-03  3.4977E-03   85.087
    20    1    0.2190    0.0000    0.0000   0.02434  2.1836E-04  2.2588E-03  2.2693E-03   84.478
    21    1    0.2434    0.0000    0.0000   0.02434  9.6707E-05  8.9199E-04  8.9722E-04   83.812
    22    2   -0.2351    0.1099    0.0000   0.02351  2.0883E-03 -3.9580E-04  2.1255E-03  -10.732
    23    2   -0.2116    0.1099    0.0000   0.02351  5.2879E-03 -8.4765E-04  5.3554E-03   -9.107
    24    2   -0.1880    0.1099    0.0000   0.02351  8.1694E-03 -1.0910E-03  8.2419E-03   -7.606
    25    2   -0.1645    0.1099    0.0000   0.02351  1.0849E-02 -1.2030E-03  1.0915E-02   -6.328
    26    2   -0.1410    0.1099    0.0000   0.02351  1.3291E-02 -1.2193E-03  1.3347E-02   -5.242
    27    2   -0.1175    0.1099    0.0000   0.02351  1.5450E-02 -1.1610E-03  1.5493E-02   -4.298
    28    2   -0.0940    0.1099    0.0000   0.02351  1.7282E-02 -1.0410E-03  1.7313E-02   -3.447
    29    2   -0.0705    0.1099    0.0000   0.02351  1.8749E-02 -8.6667E-04  1.8769E-02   -2.647
    30    2   -0.0470    0.1099    0.0000   0.02351  1.9821E-02 -6.4006E-04  1.9831E-02   -1.850
    31    2   -0.0235    0.1099    0.0000   0.02351  2.0473E-02 -3.4488E-04  2.0476E-02   -0.965
    32    2   -0.0000    0.1099    0.0000   0.02351  2.0692E-02 -3.7304E-05  2.0692E-02   -0.103
    33    2    0.0235    0.1099    0.0000   0.02351  2.0473E-02 -3.4488E-04  2.0476E-02   -0.965
    34    2    0.0470    0.1099    0.0000   0.02351  1.9821E-02 -6.4006E-04  1.9831E-02   -1.850
    35    2    0.0705    0.1099    0.0000   0.02351  1.8749E-02 -8.6667E-04  1.8769E-02   -2.647
    36    2    0.0940    0.1099    0.0000   0.02351  1.7282E-02 -1.0410E-03  1.7313E-02   -3.447
    37    2    0.1175    0.1099    0.0000   0.02351  1.5450E-02 -1.1610E-03  1.5493E-02   -4.298
    38    2    0.1410    0.1099    0.0000   0.02351  1.3291E-02 -1.2193E-03  1.3347E-02   -5.242
    39    2    0.1645    0.1099    0.0000   0.02351  1.0849E-02 -1.2030E-03  1.0915E-02   -6.328
    40    2    0.1880    0.1099    0.0000   0.02351  8.1694E-03 -1.0910E-03  8.2419E-03   -7.606
    41    2    0.2116    0.1099    0.0000   0.02351  5.2879E-03 -8.4765E-04  5.3554E-03   -9.107
    42    2    0.2351    0.1099    0.0000   0.02351  2.0883E-03 -3.9580E-04  2.1255E-03  -10.732
    43    3   -0.2202    0.1683    0.0000   0.02202 -1.4839E-03 -2.7034E-03  3.0839E-03 -118.763
    44    3   -0.1982    0.1683    0.0000   0.02202 -3.7206E-03 -6.6871E-03  7.6525E-03 -119.091
    45    3   -0.1761    0.1683    0.0000   0.02202 -5.7028E-03 -1.0149E-02  1.1641E-02 -119.333
    46    3   -0.1541    0.1683    0.0000   0.02202 -7.5203E-03 -1.3293E-02  1.5273E-02 -119.498
    47    3   -0.1321    0.1683    0.0000   0.02202 -9.1572E-03 -1.6114E-02  1.8534E-02 -119.609
    48    3   -0.1101    0.1683    0.0000   0.02202 -1.0591E-02 -1.8582E-02  2.1389E-02 -119.681
    49    3   -0.0881    0.1683    0.0000   0.02202 -1.1799E-02 -2.0664E-02  2.3795E-02 -119.725
    50    3   -0.0661    0.1683    0.0000   0.02202 -1.2760E-02 -2.2327E-02  2.5716E-02 -119.749
    51    3   -0.0440    0.1683    0.0000   0.02202 -1.3459E-02 -2.3540E-02  2.7116E-02 -119.759
    52    3   -0.0220    0.1683    0.0000   0.02202 -1.3883E-02 -2.4279E-02  2.7968E-02 -119.762
    53    3   -0.0000    0.1683    0.0000   0.02202 -1.4026E-02 -2.4528E-02  2.8255E-02 -119.762
    54    3    0.0220    0.1683    0.0000   0.02202 -1.3883E-02 -2.4279E-02  2.7968E-02 -119.762
    55    3    0.0440    0.1683    0.0000   0.02202 -1.3459E-02 -2.3540E-02  2.7116E-02 -119.759
    56    3    0.0661    0.1683    0.0000   0.02202 -1.2760E-02 -2.2327E-02  2.5716E-02 -119.749
    57    3    0.0881    0.1683    0.0000   0.02202 -1.1799E-02 -2.0664E-02  2.3795E-02 -119.725
    58    3    0.1101    0.1683    0.0000   0.02202 -1.0591E-02 -1.8582E-02  2.1389E-02 -119.681
    59    3    0.1321    0.1683    0.0000   0.02202 -9.1572E-03 -1.6114E-02  1.8534E-02 -119.609
    60    3    0.1541    0.1683    0.0000   0.02202 -7.5203E-03 -1.3293E-02  1.5273E-02 -119.498
    61    3    0.1761    0.1683    0.0000   0.02202 -5.7028E-03 -1.0149E-02  1.1641E-02 -119.333
    62    3    0.1982    0.1683    0.0000   0.02202 -3.7206E-03 -6.6871E-03  7.6525E-03 -119.091
    63    3    0.2202    0.1683    0.0000   0.02202 -1.4839E-03 -2.7034E-03  3.0839E-03 -118.763
    64    4   -0.2162    0.3171    0.0000   0.02162 -1.7454E-03  8.1599E-04  1.9267E-03  154.943
    65    4   -0.1946    0.3171    0.0000   0.02162 -4.2980E-03  2.0180E-03  4.7482E-03  154.849
    66    4   -0.1729    0.3171    0.0000   0.02162 -6.4987E-03  3.0633E-03  7.1845E-03  154.762
    67    4   -0.1513    0.3171    0.0000   0.02162 -8.4828E-03  4.0123E-03  9.3838E-03  154.686
    68    4   -0.1297    0.3171    0.0000   0.02162 -1.0250E-02  4.8622E-03  1.1345E-02  154.622
    69    4   -0.1081    0.3171    0.0000   0.02162 -1.1786E-02  5.6039E-03  1.3050E-02  154.570
    70    4   -0.0865    0.3171    0.0000   0.02162 -1.3073E-02  6.2273E-03  1.4480E-02  154.529
    71    4   -0.0649    0.3171    0.0000   0.02162 -1.4094E-02  6.7229E-03  1.5615E-02  154.498
    72    4   -0.0432    0.3171    0.0000   0.02162 -1.4834E-02  7.0829E-03  1.6438E-02  154.477
    73    4   -0.0216    0.3171    0.0000   0.02162 -1.5283E-02  7.3012E-03  1.6937E-02  154.465
    74    4   -0.0000    0.3171    0.0000   0.02162 -1.5433E-02  7.3744E-03  1.7105E-02  154.460
    75    4    0.0216    0.3171    0.0000   0.02162 -1.5283E-02  7.3012E-03  1.6937E-02  154.465
    76    4    0.0432    0.3171    0.0000   0.02162 -1.4834E-02  7.0829E-03  1.6438E-02  154.477
    77    4    0.0649    0.3171    0.0000   0.02162 -1.4094E-02  6.7229E-03  1.5615E-02  154.498
    78    4    0.0865    0.3171    0.0000   0.02162 -1.3073E-02  6.2273E-03  1.4480E-02  154.529
    79    4    0.1081    0.3171    0.0000   0.02162 -1.1786E-02  5.6039E-03  1.3050E-02  154.570
    80    4    0.1297    0.3171    0.0000   0.02162 -1.0250E-02  4.8622E-03  1.1345E-02  154.622
    81    4    0.1513    0.3171    0.0000   0.02162 -8.4828E-03  4.0123E-03  9.3838E-03  154.686
    82    4    0.1729    0.3171    0.0000   0.02162 -6.4987E-03  3.0633E-03  7.1845E-03  154.762
    83    4    0.1946    0.3171    0.0000   0.02162 -4.2980E-03  2.0180E-03  4.7482E-03  154.849
    84    4    0.2162    0.3171    0.0000   0.02162 -1.7454E-03  8.1599E-04  1.9267E-03  154.943
    85    5   -0.2166    0.5089    0.0000   0.02166  1.3939E-03  2.4153E-03  2.7887E-03   60.010
    86    5   -0.1949    0.5089    0.0000   0.02166  3.4373E-03  5.9499E-03  6.8714E-03   59.985
    87    5   -0.1733    0.5089    0.0000   0.02166  5.2037E-03  8.9988E-03  1.0395E-02   59.961
    88    5   -0.1516    0.5089    0.0000   0.02166  6.7999E-03  1.1749E-02  1.3575E-02   59.938
    89    5   -0.1300    0.5089    0.0000   0.02166  8.2244E-03  1.4198E-02  1.6408E-02   59.919
    90    5   -0.1083    0.5089    0.0000   0.02166  9.4644E-03  1.6328E-02  1.8873E-02   59.901
    91    5   -0.0866    0.5089    0.0000   0.02166  1.0505E-02  1.8113E-02  2.0938E-02   59.887
    92    5   -0.0650    0.5089    0.0000   0.02166  1.1331E-02  1.9528E-02  2.2578E-02   59.876
    93    5   -0.0433    0.5089    0.0000   0.02166  1.1931E-02  2.0555E-02  2.3767E-02   59.869
    94    5   -0.0217    0.5089    0.0000   0.02166  1.2294E-02  2.1178E-02  2.4488E-02   59.864
    95    5    0.0000    0.5089    0.0000   0.02166  1.2416E-02  2.1386E-02  2.4729E-02   59.862
    96    5    0.0217    0.5089    0.0000   0.02166  1.2294E-02  2.1178E-02  2.4488E-02   59.864
    97    5    0.0433    0.5089    0.0000   0.02166  1.1931E-02  2.0555E-02  2.3767E-02   59.869
    98    5    0.0650    0.5089    0.0000   0.02166  1.1331E-02  1.9528E-02  2.2578E-02   59.876
    99    5    0.0866    0.5089    0.0000   0.02166  1.0505E-02  1.8113E-02  2.0938E-02   59.887
   100    5    0.1083    0.5089    0.0000   0.02166  9.4644E-03  1.6328E-02  1.8873E-02   59.901
   101    5    0.1300    0.5089    0.0000   0.02166  8.2244E-03  1.4198E-02  1.6408E-02   59.919
   102    5    0.1516    0.5089    0.0000   0.02166  6.7999E-03  1.1749E-02  1.3575E-02   59.938
   103    5    0.1733    0.5089    0.0000   0.02166  5.2037E-03  8.9988E-03  1.0395E-02   59.961
   104    5    0.1949    0.5089    0.0000   0.02166  3.4373E-03  5.9499E-03  6.8714E-03   59.985
   105    5    0.2166    0.5089    0.0000   0.02166  1.3939E-03  2.4153E-03  2.7887E-03   60.010
   106    7   -0.2155    0.7671    0.0000   0.02155  8.2623E-04 -2.7503E-03  2.8717E-03  -73.279
   107    7   -0.1939    0.7671    0.0000   0.02155  2.0319E-03 -6.7705E-03  7.0688E-03  -73.295
   108    7   -0.1724    0.7671    0.0000   0.02155  3.0690E-03 -1.0236E-02  1.0686E-02  -73.310
   109    7   -0.1508    0.7671    0.0000   0.02155  4.0023E-03 -1.3360E-02  1.3947E-02  -73.324
   110    7   -0.1293    0.7671    0.0000   0.02155  4.8320E-03 -1.6143E-02  1.6851E-02  -73.336
   111    7   -0.1077    0.7671    0.0000   0.02155  5.5522E-03 -1.8562E-02  1.9374E-02  -73.347
   112    7   -0.0862    0.7671    0.0000   0.02155  6.1548E-03 -2.0588E-02  2.1488E-02  -73.356
   113    7   -0.0646    0.7671    0.0000   0.02155  6.6324E-03 -2.2195E-02  2.3165E-02  -73.363
   114    7   -0.0431    0.7671    0.0000   0.02155  6.9784E-03 -2.3361E-02  2.4381E-02  -73.368
   115    7   -0.0215    0.7671    0.0000   0.02155  7.1881E-03 -2.4067E-02  2.5118E-02  -73.371
   116    7    0.0000    0.7671    0.0000   0.02155  7.2583E-03 -2.4304E-02  2.5365E-02  -73.372
   117    7    0.0215    0.7671    0.0000   0.02155  7.1881E-03 -2.4067E-02  2.5118E-02  -73.371
   118    7    0.0431    0.7671    0.0000   0.02155  6.9784E-03 -2.3361E-02  2.4381E-02  -73.368
   119    7    0.0646    0.7671    0.0000   0.02155  6.6324E-03 -2.2195E-02  2.3165E-02  -73.363
   120    7    0.0862    0.7671    0.0000   0.02155  6.1548E-03 -2.0588E-02  2.1488E-02  -73.356
   121    7    0.1077    0.7671    0.0000   0.02155  5.5522E-03 -1.8562E-02  1.9374E-02  -73.347
   122    7    0.1293    0.7671    0.0000   0.02155  4.8320E-03 -1.6143E-02  1.6851E-02  -73.336
   123    7    0.1508    0.7671    0.0000   0.02155  4.0023E-03 -1.3360E-02  1.3947E-02  -73.324
   124    7    0.1724    0.7671    0.0000   0.02155  3.0690E-03 -1.0236E-02  1.0686E-02  -73.310
   125    7    0.1939    0.7671    0.0000   0.02155  2.0319E-03 -6.7705E-03  7.0688E-03  -73.295
   126    7    0.2155    0.7671    0.0000   0.02155  8.2623E-04 -2.7503E-03  2.8717E-03  -73.279
   127    8   -0.2095    1.0808    0.0000   0.02095 -1.8955E-03  9.8885E-04  2.1379E-03  152.450
   128    8   -0.1885    1.0808    0.0000   0.02095 -4.6435E-03  2.4238E-03  5.2381E-03  152.436
   129    8   -0.1676    1.0808    0.0000   0.02095 -6.9986E-03  3.6551E-03  7.8955E-03  152.423
   130    8   -0.1466    1.0808    0.0000   0.02095 -9.1127E-03  4.7616E-03  1.0282E-02  152.412
   131    8   -0.1257    1.0808    0.0000   0.02095 -1.0989E-02  5.7445E-03  1.2400E-02  152.401
   132    8   -0.1047    1.0808    0.0000   0.02095 -1.2614E-02  6.5968E-03  1.4235E-02  152.392
   133    8   -0.0838    1.0808    0.0000   0.02095 -1.3973E-02  7.3098E-03  1.5770E-02  152.384
   134    8   -0.0628    1.0808    0.0000   0.02095 -1.5049E-02  7.8746E-03  1.6985E-02  152.378
   135    8   -0.0419    1.0808    0.0000   0.02095 -1.5828E-02  8.2837E-03  1.7864E-02  152.374
   136    8   -0.0209    1.0808    0.0000   0.02095 -1.6300E-02  8.5315E-03  1.8397E-02  152.371
   137    8    0.0000    1.0808    0.0000   0.02095 -1.6457E-02  8.6145E-03  1.8576E-02  152.371
   138    8    0.0209    1.0808    0.0000   0.02095 -1.6300E-02  8.5315E-03  1.8397E-02  152.371
   139    8    0.0419    1.0808    0.0000   0.02095 -1.5828E-02  8.2837E-03  1.7864E-02  152.374
   140    8    0.0628    1.0808    0.0000   0.02095 -1.5049E-02  7.8746E-03  1.6985E-02  152.378
   141    8    0.0838    1.0808    0.0000   0.02095 -1.3973E-02  7.3098E-03  1.5770E-02  152.384
   142    8    0.1047    1.0808    0.0000   0.02095 -1.2614E-02  6.5968E-03  1.4235E-02  152.392
   143    8    0.1257    1.0808    0.0000   0.02095 -1.0989E-02  5.7445E-03  1.2400E-02  152.401
   144    8    0.1466    1.0808    0.0000   0.02095 -9.1127E-03  4.7616E-03  1.0282E-02  152.412
   145    8    0.1676    1.0808    0.0000   0.02095 -6.9986E-03  3.6551E-03  7.8955E-03  152.423
   146    8    0.1885    1.0808    0.0000   0.02095 -4.6435E-03  2.4238E-03  5.2381E-03  152.436
   147    8    0.2095    1.0808    0.0000   0.02095 -1.8955E-03  9.8885E-04  2.1379E-03  152.450
   148    9   -0.2041    1.4496    0.0000   0.02041  1.4765E-03  3.4744E-04  1.5168E-03   13.242
   149    9   -0.1837    1.4496    0.0000   0.02041  3.6023E-03  8.4778E-04  3.7007E-03   13.243
   150    9   -0.1633    1.4496    0.0000   0.02041  5.4160E-03  1.2747E-03  5.5640E-03   13.244
   151    9   -0.1429    1.4496    0.0000   0.02041  7.0391E-03  1.6568E-03  7.2314E-03   13.245
   152    9   -0.1225    1.4496    0.0000   0.02041  8.4756E-03  1.9950E-03  8.7072E-03   13.245
   153    9   -0.1021    1.4496    0.0000   0.02041  9.7177E-03  2.2873E-03  9.9832E-03   13.245
   154    9   -0.0816    1.4496    0.0000   0.02041  1.0754E-02  2.5313E-03  1.1048E-02   13.245
   155    9   -0.0612    1.4496    0.0000   0.02041  1.1574E-02  2.7241E-03  1.1890E-02   13.245
   156    9   -0.0408    1.4496    0.0000   0.02041  1.2166E-02  2.8636E-03  1.2499E-02   13.245
   157    9   -0.0204    1.4496    0.0000   0.02041  1.2525E-02  2.9481E-03  1.2867E-02   13.245
   158    9    0.0000    1.4496    0.0000   0.02041  1.2645E-02  2.9763E-03  1.2991E-02   13.245
   159    9    0.0204    1.4496    0.0000   0.02041  1.2525E-02  2.9481E-03  1.2867E-02   13.245
   160    9    0.0408    1.4496    0.0000   0.02041  1.2166E-02  2.8636E-03  1.2499E-02   13.245
   161    9    0.0612    1.4496    0.0000   0.02041  1.1574E-02  2.7241E-03  1.1890E-02   13.245
   162    9    0.0816    1.4496    0.0000   0.02041  1.0754E-02  2.5313E-03  1.1048E-02   13.245
   163    9    0.1021    1.4496    0.0000   0.02041  9.7177E-03  2.2873E-03  9.9832E-03   13.245
   164    9    0.1225    1.4496    0.0000   0.02041  8.4756E-03  1.9950E-03  8.7072E-03   13.245
   165    9    0.1429    1.4496    0.0000   0.02041  7.0391E-03  1.6568E-03  7.2314E-03   13.245
   166    9    0.1633    1.4496    0.0000   0.02041  5.4160E-03  1.2747E-03  5.5640E-03   13.244
   167    9    0.1837    1.4496    0.0000   0.02041  3.6023E-03  8.4778E-04  3.7007E-03   13.243
   168    9    0.2041    1.4496    0.0000   0.02041  1.4765E-03  3.4744E-04  1.5168E-03   13.242
   169   10   -0.1999    1.8320    0.0000   0.01999 -7.0245E-04 -9.0523E-04  1.1458E-03 -127.811
   170   10   -0.1800    1.8320    0.0000   0.01999 -1.7081E-03 -2.2015E-03  2.7865E-03 -127.806
   171   10   -0.1600    1.8320    0.0000   0.01999 -2.5628E-03 -3.3037E-03  4.1813E-03 -127.802
   172   10   -0.1400    1.8320    0.0000   0.01999 -3.3257E-03 -4.2876E-03  5.4262E-03 -127.799
   173   10   -0.1200    1.8320    0.0000   0.01999 -3.9993E-03 -5.1566E-03  6.5257E-03 -127.796
   174   10   -0.1000    1.8320    0.0000   0.01999 -4.5808E-03 -5.9067E-03  7.4748E-03 -127.794
   175   10   -0.0800    1.8320    0.0000   0.01999 -5.0652E-03 -6.5318E-03  8.2656E-03 -127.793
   176   10   -0.0600    1.8320    0.0000   0.01999 -5.4478E-03 -7.0255E-03  8.8902E-03 -127.792
   177   10   -0.0400    1.8320    0.0000   0.01999 -5.7244E-03 -7.3823E-03  9.3417E-03 -127.791
   178   10   -0.0200    1.8320    0.0000   0.01999 -5.8917E-03 -7.5982E-03  9.6148E-03 -127.790
   179   10    0.0000    1.8320    0.0000   0.01999 -5.9477E-03 -7.6704E-03  9.7062E-03 -127.790
   180   10    0.0200    1.8320    0.0000   0.01999 -5.8917E-03 -7.5982E-03  9.6148E-03 -127.790
   181   10    0.0400    1.8320    0.0000   0.01999 -5.7244E-03 -7.3823E-03  9.3417E-03 -127.791
   182   10    0.0600    1.8320    0.0000   0.01999 -5.4478E-03 -7.0255E-03  8.8902E-03 -127.792
   183   10    0.0800    1.8320    0.0000   0.01999 -5.0652E-03 -6.5318E-03  8.2656E-03 -127.793
   184   10    0.1000    1.8320    0.0000   0.01999 -4.5808E-03 -5.9067E-03  7.4748E-03 -127.794
   185   10    0.1200    1.8320    0.0000   0.01999 -3.9993E-03 -5.1566E-03  6.5257E-03 -127.796
   186   10    0.1400    1.8320    0.0000   0.01999 -3.3257E-03 -4.2876E-03  5.4262E-03 -127.799
   187   10    0.1600    1.8320    0.0000   0.01999 -2.5628E-03 -3.3037E-03  4.1813E-03 -127.802
   188   10    0.1800    1.8320    0.0000   0.01999 -1.7081E-03 -2.2015E-03  2.7865E-03 -127.806
   189   10    0.1999    1.8320    0.0000   0.01999 -7.0245E-04 -9.0523E-04  1.1458E-03 -127.811
   190   11   -0.1958    2.2294    0.0000   0.01958  3.2438E-06  8.7318E-04  8.7318E-04   89.787
   191   11   -0.1762    2.2294    0.0000   0.01958  7.5576E-06  2.1165E-03  2.1165E-03   89.795
   192   11   -0.1566    2.2294    0.0000   0.01958  1.0924E-05  3.1698E-03  3.1698E-03   89.803
   193   11   -0.1370    2.2294    0.0000   0.01958  1.3728E-05  4.1076E-03  4.1076E-03   89.809
   194   11   -0.1175    2.2294    0.0000   0.01958  1.6065E-05  4.9341E-03  4.9341E-03   89.813
   195   11   -0.0979    2.2294    0.0000   0.01958  1.7988E-05  5.6463E-03  5.6464E-03   89.817
   196   11   -0.0783    2.2294    0.0000   0.01958  1.9529E-05  6.2390E-03  6.2390E-03   89.821
   197   11   -0.0587    2.2294    0.0000   0.01958  2.0711E-05  6.7066E-03  6.7066E-03   89.823
   198   11   -0.0392    2.2294    0.0000   0.01958  2.1546E-05  7.0443E-03  7.0443E-03   89.825
   199   11   -0.0196    2.2294    0.0000   0.01958  2.2043E-05  7.2485E-03  7.2485E-03   89.826
   200   11    0.0000    2.2294    0.0000   0.01958  2.2209E-05  7.3168E-03  7.3168E-03   89.826
   201   11    0.0196    2.2294    0.0000   0.01958  2.2043E-05  7.2485E-03  7.2485E-03   89.826
   202   11    0.0392    2.2294    0.0000   0.01958  2.1546E-05  7.0443E-03  7.0443E-03   89.825
   203   11    0.0587    2.2294    0.0000   0.01958  2.0711E-05  6.7066E-03  6.7066E-03   89.823
   204   11    0.0783    2.2294    0.0000   0.01958  1.9529E-05  6.2390E-03  6.2390E-03   89.821
   205   11    0.0979    2.2294    0.0000   0.01958  1.7988E-05  5.6463E-03  5.6464E-03   89.817
   206   11    0.1175    2.2294    0.0000   0.01958  1.6065E-05  4.9341E-03  4.9341E-03   89.813
   207   11    0.1370    2.2294    0.0000   0.01958  1.3728E-05  4.1076E-03  4.1076E-03   89.809
   208   11    0.1566    2.2294    0.0000   0.01958  1.0924E-05  3.1698E-03  3.1698E-03   89.803
   209   11    0.1762    2.2294    0.0000   0.01958  7.5576E-06  2.1165E-03  2.1165E-03   89.795
   210   11    0.1958    2.2294    0.0000   0.01958  3.2438E-06  8.7318E-04  8.7318E-04   89.787
   211   12   -0.1916    2.6243    0.0000   0.01916  4.3439E-04 -5.3452E-04  6.8878E-04  -50.900
   212   12   -0.1725    2.6243    0.0000   0.01916  1.0499E-03 -1.2911E-03  1.6641E-03  -50.884
   213   12   -0.1533    2.6243    0.0000   0.01916  1.5699E-03 -1.9296E-03  2.4875E-03  -50.869
   214   12   -0.1341    2.6243    0.0000   0.01916  2.0320E-03 -2.4966E-03  3.2190E-03  -50.857
   215   12   -0.1150    2.6243    0.0000   0.01916  2.4387E-03 -2.9951E-03  3.8624E-03  -50.847
   216   12   -0.0958    2.6243    0.0000   0.01916  2.7887E-03 -3.4239E-03  4.4159E-03  -50.838
   217   12   -0.0766    2.6243    0.0000   0.01916  3.0797E-03 -3.7802E-03  4.8759E-03  -50.831
   218   12   -0.0575    2.6243    0.0000   0.01916  3.3091E-03 -4.0610E-03  5.2385E-03  -50.825
   219   12   -0.0383    2.6243    0.0000   0.01916  3.4747E-03 -4.2637E-03  5.5002E-03  -50.822
   220   12   -0.0192    2.6243    0.0000   0.01916  3.5747E-03 -4.3861E-03  5.6583E-03  -50.819
   221   12    0.0000    2.6243    0.0000   0.01916  3.6082E-03 -4.4270E-03  5.7112E-03  -50.819
   222   12    0.0192    2.6243    0.0000   0.01916  3.5747E-03 -4.3861E-03  5.6583E-03  -50.819
   223   12    0.0383    2.6243    0.0000   0.01916  3.4747E-03 -4.2637E-03  5.5002E-03  -50.822
   224   12    0.0575    2.6243    0.0000   0.01916  3.3091E-03 -4.0610E-03  5.2385E-03  -50.825
   225   12    0.0766    2.6243    0.0000   0.01916  3.0797E-03 -3.7802E-03  4.8759E-03  -50.831
   226   12    0.0958    2.6243    0.0000   0.01916  2.7887E-03 -3.4239E-03  4.4159E-03  -50.838
   227   12    0.1150    2.6243    0.0000   0.01916  2.4387E-03 -2.9951E-03  3.8624E-03  -50.847
   228   12    0.1341    2.6243    0.0000   0.01916  2.0320E-03 -2.4966E-03  3.2190E-03  -50.857
   229   12    0.1533    2.6243    0.0000   0.01916  1.5699E-03 -1.9296E-03  2.4875E-03  -50.869
   230   12    0.1725    2.6243    0.0000   0.01916  1.0499E-03 -1.2911E-03  1.6641E-03  -50.884
   231   12    0.1916    2.6243    0.0000   0.01916  4.3440E-04 -5.3452E-04  6.8878E-04  -50.900
   232   13   -0.1857    2.9742    0.0000   0.01857 -5.0116E-04  1.6688E-05  5.0144E-04  178.093
   233   13   -0.1671    2.9742    0.0000   0.01857 -1.2051E-03  4.0218E-05  1.2058E-03  178.089
   234   13   -0.1485    2.9742    0.0000   0.01857 -1.7966E-03  6.0097E-05  1.7976E-03  178.084
   235   13   -0.1300    2.9742    0.0000   0.01857 -2.3202E-03  7.7792E-05  2.3216E-03  178.080
   236   13   -0.1114    2.9742    0.0000   0.01857 -2.7796E-03  9.3395E-05  2.7812E-03  178.076
   237   13   -0.0928    2.9742    0.0000   0.01857 -3.1739E-03  1.0685E-04  3.1757E-03  178.072
   238   13   -0.0743    2.9742    0.0000   0.01857 -3.5009E-03  1.1807E-04  3.5029E-03  178.068
   239   13   -0.0557    2.9742    0.0000   0.01857 -3.7584E-03  1.2692E-04  3.7605E-03  178.066
   240   13   -0.0371    2.9742    0.0000   0.01857 -3.9439E-03  1.3333E-04  3.9462E-03  178.064
   241   13   -0.0186    2.9742    0.0000   0.01857 -4.0560E-03  1.3720E-04  4.0583E-03  178.063
   242   13    0.0000    2.9742    0.0000   0.01857 -4.0935E-03  1.3850E-04  4.0958E-03  178.062
   243   13    0.0186    2.9742    0.0000   0.01857 -4.0560E-03  1.3720E-04  4.0583E-03  178.063
   244   13    0.0371    2.9742    0.0000   0.01857 -3.9439E-03  1.3333E-04  3.9462E-03  178.064
   245   13    0.0557    2.9742    0.0000   0.01857 -3.7584E-03  1.2692E-04  3.7605E-03  178.066
   246   13    0.0743    2.9742    0.0000   0.01857 -3.5009E-03  1.1807E-04  3.5029E-03  178.068
   247   13    0.0928    2.9742    0.0000   0.01857 -3.1739E-03  1.0685E-04  3.1757E-03  178.072
   248   13    0.1114    2.9742    0.0000   0.01857 -2.7796E-03  9.3395E-05  2.7812E-03  178.076
   249   13    0.1300    2.9742    0.0000   0.01857 -2.3202E-03  7.7792E-05  2.3216E-03  178.080
   250   13    0.1485    2.9742    0.0000   0.01857 -1.7966E-03  6.0097E-05  1.7976E-03  178.084
   251   13    0.1671    2.9742    0.0000   0.01857 -1.2051E-03  4.0218E-05  1.2058E-03  178.089
   252   13    0.1857    2.9742    0.0000   0.01857 -5.0116E-04  1.6688E-05  5.0144E-04  178.093


                               ---------- POWER BUDGET ---------
                               INPUT POWER   =  1.0346E-02 Watts
                               RADIATED POWER=  1.0346E-02 Watts
                               STRUCTURE LOSS=  0.0000E+00 Watts
                               NETWORK LOSS  =  0.0000E+00 Watts
                               EFFICIENCY    =  100.00 Percent


                             ---------- RADIATION PATTERNS -----------

 ---- ANGLES -----     ----- POWER GAINS -----       ---- POLARIZATION ----   ---- E(THETA) ----    ----- E(PHI) ------
  THETA      PHI       VERTC    HORIZ    TOTAL       AXIAL      TILT  SENSE   MAGNITUDE    PHASE    MAGNITUDE     PHASE
 DEGREES   DEGREES        DB       DB       DB       RATIO   DEGREES            VOLTS/M   DEGREES     VOLTS/M   DEGREES
    0.00      0.00     -7.52  -999.99    -7.52      0.0000     -0.00 LINEAR  3.3130E-01   -150.18  0.0000E+00      0.00
    5.00      0.00     -7.57  -999.99    -7.57      0.0000     -0.00 LINEAR  3.2936E-01   -150.24  0.0000E+00      0.00
   10.00      0.00     -7.73  -999.99    -7.73      0.0000     -0.00 LINEAR  3.2361E-01   -150.40  0.0000E+00      0.00
   15.00      0.00     -7.98  -999.99    -7.98      0.0000     -0.00 LINEAR  3.1425E-01   -150.67  0.0000E+00      0.00
   20.00      0.00     -8.34  -999.99    -8.34      0.0000     -0.00 LINEAR  3.0159E-01   -151.03  0.0000E+00      0.00
   25.00      0.00     -8.80  -999.99    -8.80      0.0000     -0.00 LINEAR  2.8603E-01   -151.49  0.0000E+00      0.00
   30.00      0.00     -9.36  -999.99    -9.36      0.0000     -0.00 LINEAR  2.6804E-01   -152.03  0.0000E+00      0.00
   35.00      0.00    -10.03  -999.99   -10.03      0.0000     -0.00 LINEAR  2.4811E-01   -152.63  0.0000E+00      0.00
   40.00      0.00    -10.82  -999.99   -10.82      0.0000     -0.00 LINEAR  2.2672E-01   -153.29  0.0000E+00      0.00
   45.00      0.00    -11.72  -999.99   -11.72      0.0000     -0.00 LINEAR  2.0434E-01   -153.98  0.0000E+00      0.00
   50.00      0.00    -12.76  -999.99   -12.76      0.0000     -0.00 LINEAR  1.8136E-01   -154.68  0.0000E+00      0.00
   55.00      0.00    -13.95  -999.99   -13.95      0.0000     -0.00 LINEAR  1.5810E-01   -155.37  0.0000E+00      0.00
   60.00      0.00    -15.33  -999.99   -15.33      0.0000     -0.00 LINEAR  1.3484E-01   -156.03  0.0000E+00      0.00
   65.00      0.00    -16.96  -999.99   -16.96      0.0000     -0.00 LINEAR  1.1173E-01   -156.64  0.0000E+00      0.00
   70.00      0.00    -18.95  -999.99   -18.95      0.0000     -0.00 LINEAR  8.8888E-02   -157.17  0.0000E+00      0.00
   75.00      0.00    -21.49  -999.99   -21.49      0.0000     -0.00 LINEAR  6.6335E-02   -157.60  0.0000E+00      0.00
   80.00      0.00    -25.05  -999.99   -25.05      0.0000     -0.00 LINEAR  4.4051E-02   -157.93  0.0000E+00      0.00
   85.00      0.00    -31.09  -999.99   -31.09      0.0000     -0.00 LINEAR  2.1971E-02   -158.13  0.0000E+00      0.00
   90.00      0.00   -999.99  -999.99  -999.99      0.0000      0.00         1.2838E-12     21.80  0.0000E+00      0.00
   95.00      0.00    -31.09  -999.99   -31.09      0.0000      0.00 LINEAR  2.1971E-02     21.87  0.0000E+00      0.00
  100.00      0.00    -25.05  -999.99   -25.05      0.0000      0.00 LINEAR  4.4051E-02     22.07  0.0000E+00      0.00
  105.00      0.00    -21.49  -999.99   -21.49      0.0000      0.00 LINEAR  6.6335E-02     22.40  0.0000E+00      0.00
  110.00      0.00    -18.95  -999.99   -18.95      0.0000      0.00 LINEAR  8.8888E-02     22.83  0.0000E+00      0.00
  115.00      0.00    -16.96  -999.99   -16.96      0.0000      0.00 LINEAR  1.1173E-01     23.36  0.0000E+00      0.00
  120.00      0.00    -15.33  -999.99   -15.33      0.0000      0.00 LINEAR  1.3484E-01     23.97  0.0000E+00      0.00
  125.00      0.00    -13.95  -999.99   -13.95      0.0000      0.00 LINEAR  1.5810E-01     24.63  0.0000E+00      0.00
  130.00      0.00    -12.76  -999.99   -12.76      0.0000      0.00 LINEAR  1.8136E-01     25.32  0.0000E+00      0.00
  135.00      0.00    -11.72  -999.99   -11.72      0.0000      0.00 LINEAR  2.0434E-01     26.02  0.0000E+00      0.00
  140.00      0.00    -10.82  -999.99   -10.82      0.0000      0.00 LINEAR  2.2672E-01     26.71  0.0000E+00      0.00
  145.00      0.00    -10.03  -999.99   -10.03      0.0000      0.00 LINEAR  2.4811E-01     27.37  0.0000E+00      0.00
  150.00      0.00     -9.36  -999.99    -9.36      0.0000      0.00 LINEAR  2.6804E-01     27.97  0.0000E+00      0.00
  155.00      0.00     -8.80  -999.99    -8.80      0.0000      0.00 LINEAR  2.8603E-01     28.51  0.0000E+00      0.00
  160.00      0.00     -8.34  -999.99    -8.34      0.0000      0.00 LINEAR  3.0159E-01     28.97  0.0000E+00      0.00
  165.00      0.00     -7.98  -999.99    -7.98      0.0000      0.00 LINEAR  3.1425E-01     29.33  0.0000E+00      0.00
  170.00      0.00     -7.73  -999.99    -7.73      0.0000      0.00 LINEAR  3.2361E-01     29.60  0.0000E+00      0.00
  175.00      0.00     -7.57  -999.99    -7.57      0.0000      0.00 LINEAR  3.2936E-01     29.76  0.0000E+00      0.00
  180.00      0.00     -7.52  -999.99    -7.52      0.0000      0.00 LINEAR  3.3130E-01     29.82  0.0000E+00      0.00
    0.00      5.00     -7.55   -28.72    -7.52      0.0000     -5.00 LINEAR  3.3004E-01   -150.18  2.8875E-02     29.82
    5.00      5.00     -7.14   -28.26    -7.10      0.0000     -5.02 LINEAR  3.4634E-01   -149.32  3.0416E-02     30.68
   10.00      5.00     -6.85   -27.88    -6.82      0.0000     -5.08 LINEAR  3.5784E-01   -148.27  3.1790E-02     31.73
   15.00      5.00     -6.71   -27.57    -6.67      0.0000     -5.18 LINEAR  3.6388E-01   -147.10  3.2958E-02     32.90
   20.00      5.00     -6.70   -27.32    -6.66      0.0000     -5.32 LINEAR  3.6410E-01   -145.83  3.3899E-02     34.17
   25.00      5.00     -6.84   -27.14    -6.80      0.0000     -5.51 LINEAR  3.5843E-01   -144.51  3.4600E-02     35.49
   30.00      5.00     -7.12   -27.03    -7.07      0.0000     -5.77 LINEAR  3.4708E-01   -143.16  3.5064E-02     36.84
   35.00      5.00     -7.54   -26.97    -7.49      0.0000     -6.10 LINEAR  3.3054E-01   -141.82  3.5303E-02     38.18
   40.00      5.00     -8.11   -26.96    -8.06      0.0000     -6.52 LINEAR  3.0947E-01   -140.53  3.5344E-02     39.47
   45.00      5.00     -8.84   -26.99    -8.77      0.0000     -7.05 LINEAR  2.8464E-01   -139.29  3.5217E-02     40.71
   50.00      5.00     -9.73   -27.05    -9.65      0.0000     -7.75 LINEAR  2.5687E-01   -138.14  3.4962E-02     41.86
   55.00      5.00    -10.81   -27.14   -10.71      0.0000     -8.67 LINEAR  2.2695E-01   -137.09  3.4618E-02     42.91
   60.00      5.00    -12.10   -27.24   -11.97      0.0000     -9.92 LINEAR  1.9559E-01   -136.15  3.4225E-02     43.85
   65.00      5.00    -13.66   -27.34   -13.48      0.0000    -11.70 LINEAR  1.6338E-01   -135.34  3.3821E-02     44.66
   70.00      5.00    -15.60   -27.44   -15.32      0.0000    -14.35 LINEAR  1.3073E-01   -134.67  3.3442E-02     45.33
   75.00      5.00    -18.10   -27.53   -17.63      0.0000    -18.68 LINEAR  9.7965E-02   -134.13  3.3115E-02     45.87
   80.00      5.00    -21.64   -27.59   -20.65      0.0000    -26.74 LINEAR  6.5231E-02   -133.75  3.2865E-02     46.25
   85.00      5.00    -27.67   -27.63   -24.64      0.0000    -45.11 LINEAR  3.2584E-02   -133.52  3.2708E-02     46.48
   90.00      5.00   -999.99   -27.65   -27.65      0.0000     90.00 LINEAR  1.9048E-12     46.56  3.2655E-02     46.56
   95.00      5.00    -27.67   -27.63   -24.64      0.0000     45.11 LINEAR  3.2584E-02     46.48  3.2708E-02     46.48
  100.00      5.00    -21.64   -27.59   -20.65      0.0000     26.74 LINEAR  6.5231E-02     46.25  3.2865E-02     46.25
  105.00      5.00    -18.10   -27.53   -17.63      0.0000     18.68 LINEAR  9.7965E-02     45.87  3.3115E-02     45.87
  110.00      5.00    -15.60   -27.44   -15.32      0.0000     14.35 LINEAR  1.3073E-01     45.33  3.3442E-02     45.33
  115.00      5.00    -13.66   -27.34   -13.48      0.0000     11.70 LINEAR  1.6338E-01     44.66  3.3821E-02     44.66
  120.00      5.00    -12.10   -27.24   -11.97      0.0000      9.92 LINEAR  1.9559E-01     43.85  3.4225E-02     43.85
  125.00      5.00    -10.81   -27.14   -10.71      0.0000      8.67 LINEAR  2.2695E-01     42.91  3.4618E-02     42.91
  130.00      5.00     -9.73   -27.05    -9.65      0.0000      7.75 LINEAR  2.5687E-01     41.86  3.4962E-02     41.86
  135.00      5.00     -8.84   -26.99    -8.77      0.0000      7.05 LINEAR  2.8464E-01     40.71  3.5217E-02     40.71
  140.00      5.00     -8.11   -26.96    -8.06      0.0000      6.52 LINEAR  3.0947E-01     39.47  3.5344E-02     39.47
  145.00      5.00     -7.54   -26.97    -7.49      0.0000      6.10 LINEAR  3.3054E-01     38.18  3.5303E-02     38.18
  150.00      5.00     -7.12   -27.03    -7.07      0.0000      5.77 LINEAR  3.4708E-01     36.84  3.5064E-02     36.84
  155.00      5.00     -6.84   -27.14    -6.80      0.0000      5.51 LINEAR  3.5843E-01     35.49  3.4600E-02     35.49
  160.00      5.00     -6.70   -27.32    -6.66      0.0000      5.32 LINEAR  3.6410E-01     34.17  3.3899E-02     34.17
  165.00      5.00     -6.71   -27.57    -6.67      0.0000      5.18 LINEAR  3.6388E-01     32.90  3.2958E-02     32.90
  170.00      5.00     -6.85   -27.88    -6.82      0.0000      5.08 LINEAR  3.5784E-01     31.73  3.1790E-02     31.73
  175.00      5.00     -7.14   -28.26    -7.10      0.0000      5.02 LINEAR  3.4634E-01     30.68  3.0416E-02     30.68
  180.00      5.00     -7.55   -28.72    -7.52      0.0000      5.00 LINEAR  3.3004E-01     29.82  2.8875E-02     29.82
    0.00     10.00     -7.65   -22.73    -7.52      0.0000    -10.00 LINEAR  3.2627E-01   -150.18  5.7530E-02     29.82
    5.00     10.00     -6.80   -21.84    -6.67      0.0000    -10.04 LINEAR  3.5997E-01   -148.13  6.3715E-02     31.87
   10.00     10.00     -6.18   -21.12    -6.04      0.0000    -10.15 LINEAR  3.8658E-01   -145.24  6.9215E-02     34.76
   15.00     10.00     -5.80   -20.57    -5.66      0.0000    -10.35 LINEAR  4.0382E-01   -141.82  7.3716E-02     38.18
   20.00     10.00     -5.66   -20.19    -5.51      0.0000    -10.63 LINEAR  4.1044E-01   -138.09  7.7016E-02     41.91
   25.00     10.00     -5.75   -19.97    -5.59      0.0000    -11.01 LINEAR  4.0619E-01   -134.25  7.9027E-02     45.75
   30.00     10.00     -6.07   -19.89    -5.89      0.0000    -11.51 LINEAR  3.9179E-01   -130.43  7.9770E-02     49.57
   35.00     10.00     -6.59   -19.93    -6.40      0.0000    -12.15 LINEAR  3.6867E-01   -126.75  7.9359E-02     53.25
   40.00     10.00     -7.33   -20.09    -7.10      0.0000    -12.96 LINEAR  3.3876E-01   -123.31  7.7976E-02     56.69
   45.00     10.00     -8.26   -20.33    -8.00      0.0000    -14.00 LINEAR  3.0417E-01   -120.17  7.5850E-02     59.83
   50.00     10.00     -9.40   -20.63    -9.08      0.0000    -15.34 LINEAR  2.6695E-01   -117.39  7.3229E-02     62.61
   55.00     10.00    -10.73   -20.98   -10.34      0.0000    -17.09 LINEAR  2.2886E-01   -115.00  7.0355E-02     65.00
   60.00     10.00    -12.29   -21.35   -11.78      0.0000    -19.43 LINEAR  1.9127E-01   -113.01  6.7451E-02     66.99
   65.00     10.00    -14.11   -21.71   -13.42      0.0000    -22.65 LINEAR  1.5510E-01   -111.41  6.4710E-02     68.59
   70.00     10.00    -16.28   -22.04   -15.26      0.0000    -27.27 LINEAR  1.2081E-01   -110.18  6.2284E-02     69.82
   75.00     10.00    -18.99   -22.32   -17.33      0.0000    -34.27 LINEAR  8.8500E-02   -109.29  6.0293E-02     70.71
   80.00     10.00    -22.67   -22.54   -19.59      0.0000    -45.44 LINEAR  5.7924E-02   -108.69  5.8817E-02     71.31
   85.00     10.00    -28.79   -22.67   -21.72      0.0000    -63.70 LINEAR  2.8625E-02   -108.35  5.7912E-02     71.65
   90.00     10.00   -999.99   -22.72   -22.72      0.0000     90.00 LINEAR  1.6673E-12     71.76  5.7607E-02     71.76
   95.00     10.00    -28.79   -22.67   -21.72      0.0000     63.70 LINEAR  2.8625E-02     71.65  5.7912E-02     71.65
  100.00     10.00    -22.67   -22.54   -19.59      0.0000     45.44 LINEAR  5.7924E-02     71.31  5.8817E-02     71.31
  105.00     10.00    -18.99   -22.32   -17.33      0.0000     34.27 LINEAR  8.8500E-02     70.71  6.0293E-02     70.71
  110.00     10.00    -16.28   -22.04   -15.26      0.0000     27.27 LINEAR  1.2081E-01     69.82  6.2284E-02     69.82
  115.00     10.00    -14.11   -21.71   -13.42      0.0000     22.65 LINEAR  1.5510E-01     68.59  6.4710E-02     68.59
  120.00     10.00    -12.29   -21.35   -11.78      0.0000     19.43 LINEAR  1.9127E-01     66.99  6.7451E-02     66.99
  125.00     10.00    -10.73   -20.98   -10.34      0.0000     17.09 LINEAR  2.2886E-01     65.00  7.0355E-02     65.00
  130.00     10.00     -9.40   -20.63    -9.08      0.0000     15.34 LINEAR  2.6695E-01     62.61  7.3229E-02     62.61
  135.00     10.00     -8.26   -20.33    -8.00      0.0000     14.00 LINEAR  3.0417E-01     59.83  7.5850E-02     59.83
  140.00     10.00     -7.33   -20.09    -7.10      0.0000     12.96 LINEAR  3.3876E-01     56.69  7.7976E-02     56.69
  145.00     10.00     -6.59   -19.93    -6.40      0.0000     12.15 LINEAR  3.6867E-01     53.25  7.9359E-02     53.25
  150.00     10.00     -6.07   -19.89    -5.89      0.0000     11.51 LINEAR  3.9179E-01     49.57  7.9770E-02     49.57
  155.00     10.00     -5.75   -19.97    -5.59      0.0000     11.01 LINEAR  4.0619E-01     45.75  7.9027E-02     45.75
  160.00     10.00     -5.66   -20.19    -5.51      0.0000     10.63 LINEAR  4.1044E-01     41.91  7.7016E-02     41.91
  165.00     10.00     -5.80   -20.57    -5.66      0.0000     10.35 LINEAR  4.0382E-01     38.18  7.3716E-02     38.18
  170.00     10.00     -6.18   -21.12    -6.04      0.0000     10.15 LINEAR  3.8658E-01     34.76  6.9215E-02     34.76
  175.00     10.00     -6.80   -21.84    -6.67      0.0000     10.04 LINEAR  3.5997E-01     31.87  6.3715E-02     31.87
  180.00     10.00     -7.65   -22.73    -7.52      0.0000     10.00 LINEAR  3.2627E-01     29.82  5.7530E-02     29.82
    0.00     15.00     -7.82   -19.26    -7.52      0.0000    -15.00 LINEAR  3.2001E-01   -150.18  8.5747E-02     29.82
    5.00     15.00     -6.57   -17.98    -6.27      0.0000    -15.05 LINEAR  3.6958E-01   -146.73  9.9408E-02     33.27
   10.00     15.00     -5.72   -17.03    -5.41      0.0000    -15.22 LINEAR  4.0769E-01   -141.63  1.1093E-01     38.37
   15.00     15.00     -5.27   -16.40    -4.94      0.0000    -15.50 LINEAR  4.2954E-01   -135.66  1.1916E-01     44.34
   20.00     15.00     -5.19   -16.09    -4.86      0.0000    -15.92 LINEAR  4.3309E-01   -129.40  1.2349E-01     50.60
   25.00     15.00     -5.48   -16.07    -5.12      0.0000    -16.47 LINEAR  4.1890E-01   -123.23  1.2385E-01     56.77
   30.00     15.00     -6.11   -16.30    -5.72      0.0000    -17.19 LINEAR  3.8967E-01   -117.51  1.2057E-01     62.49
   35.00     15.00     -7.06   -16.76    -6.61      0.0000    -18.11 LINEAR  3.4958E-01   -112.51  1.1435E-01     67.49
   40.00     15.00     -8.29   -17.41    -7.79      0.0000    -19.28 LINEAR  3.0338E-01   -108.49  1.0612E-01     71.51
   45.00     15.00     -9.77   -18.20    -9.19      0.0000    -20.75 LINEAR  2.5566E-01   -105.67  9.6877E-02     74.33
   50.00     15.00    -11.48   -19.08   -10.78      0.0000    -22.63 LINEAR  2.1012E-01   -104.23  8.7590E-02     75.77
   55.00     15.00    -13.35   -19.97   -12.50      0.0000    -25.04 LINEAR  1.6927E-01   -104.21  7.9074E-02     75.79
   60.00     15.00    -15.37   -20.79   -14.28      0.0000    -28.19 LINEAR  1.3419E-01   -105.51  7.1911E-02     74.49
   65.00     15.00    -17.53   -21.48   -16.06      0.0000    -32.38 LINEAR  1.0471E-01   -107.78  6.6389E-02     72.22
   70.00     15.00    -19.89   -22.01   -17.81      0.0000    -38.08 LINEAR  7.9781E-02   -110.51  6.2503E-02     69.49
   75.00     15.00    -22.66   -22.36   -19.50      0.0000    -45.99 LINEAR  5.7969E-02   -113.18  6.0014E-02     66.82
   80.00     15.00    -26.34   -22.57   -21.05      0.0000    -57.05 LINEAR  3.7963E-02   -115.34  5.8579E-02     64.66
   85.00     15.00    -32.43   -22.68   -22.24      0.0000    -71.98 LINEAR  1.8823E-02   -116.72  5.7868E-02     63.28
   90.00     15.00   -999.99   -22.71   -22.71      0.0000     90.00 LINEAR  1.0981E-12     62.81  5.7657E-02     62.81
   95.00     15.00    -32.43   -22.68   -22.24      0.0000     71.98 LINEAR  1.8823E-02     63.28  5.7868E-02     63.28
  100.00     15.00    -26.34   -22.57   -21.05      0.0000     57.05 LINEAR  3.7963E-02     64.66  5.8579E-02     64.66
  105.00     15.00    -22.66   -22.36   -19.50      0.0000     45.99 LINEAR  5.7969E-02     66.82  6.0014E-02     66.82
  110.00     15.00    -19.89   -22.01   -17.81      0.0000     38.08 LINEAR  7.9781E-02     69.49  6.2503E-02     69.49
  115.00     15.00    -17.53   -21.48   -16.06      0.0000     32.38 LINEAR  1.0471E-01     72.22  6.6389E-02     72.22
  120.00     15.00    -15.37   -20.79   -14.28      0.0000     28.19 LINEAR  1.3419E-01     74.49  7.1911E-02     74.49
  125.00     15.00    -13.35   -19.97   -12.50      0.0000     25.04 LINEAR  1.6927E-01     75.79  7.9074E-02     75.79
  130.00     15.00    -11.48   -19.08   -10.78      0.0000     22.63 LINEAR  2.1012E-01     75.77  8.7590E-02     75.77
  135.00     15.00     -9.77   -18.20    -9.19      0.0000     20.75 LINEAR  2.5566E-01     74.33  9.6877E-02     74.33
  140.00     15.00     -8.29   -17.41    -7.79      0.0000     19.28 LINEAR  3.0338E-01     71.51  1.0612E-01     71.51
  145.00     15.00     -7.06   -16.76    -6.61      0.0000     18.11 LINEAR  3.4958E-01     67.49  1.1435E-01     67.49
  150.00     15.00     -6.11   -16.30    -5.72      0.0000     17.19 LINEAR  3.8967E-01     62.49  1.2057E-01     62.49
  155.00     15.00     -5.48   -16.07    -5.12      0.0000     16.47 LINEAR  4.1890E-01     56.77  1.2385E-01     56.77
  160.00     15.00     -5.19   -16.09    -4.86      0.0000     15.92 LINEAR  4.3309E-01     50.60  1.2349E-01     50.60
  165.00     15.00     -5.27   -16.40    -4.94      0.0000     15.50 LINEAR  4.2954E-01     44.34  1.1916E-01     44.34
  170.00     15.00     -5.72   -17.03    -5.41      0.0000     15.22 LINEAR  4.0769E-01     38.37  1.1093E-01     38.37
  175.00     15.00     -6.57   -17.98    -6.27      0.0000     15.05 LINEAR  3.6958E-01     33.27  9.9408E-02     33.27
  180.00     15.00     -7.82   -19.26    -7.52      0.0000     15.00 LINEAR  3.2001E-01     29.82  8.5747E-02     29.82
    0.00     20.00     -8.06   -16.84    -7.52      0.0000    -20.00 LINEAR  3.1132E-01   -150.18  1.1331E-01     29.82
    5.00     20.00     -6.45   -15.20    -5.91      0.0000    -20.07 LINEAR  3.7463E-01   -145.19  1.3687E-01     34.81
   10.00     20.00     -5.47   -14.11    -4.91      0.0000    -20.28 LINEAR  4.1978E-01   -137.69  1.5515E-01     42.31
   15.00     20.00     -5.08   -13.56    -4.50      0.0000    -20.65 LINEAR  4.3883E-01   -129.21  1.6536E-01     50.79
   20.00     20.00     -5.26   -13.50    -4.65      0.0000    -21.17 LINEAR  4.2977E-01   -120.77  1.6646E-01     59.23
   25.00     20.00     -5.97   -13.90    -5.32      0.0000    -21.88 LINEAR  3.9597E-01   -113.17  1.5902E-01     66.83
   30.00     20.00     -7.17   -14.70    -6.46      0.0000    -22.80 LINEAR  3.4494E-01   -107.23  1.4497E-01     72.77
   35.00     20.00     -8.78   -15.83    -8.00      0.0000    -23.96 LINEAR  2.8653E-01   -103.89  1.2731E-01     76.11
   40.00     20.00    -10.65   -17.12    -9.77      0.0000    -25.41 LINEAR  2.3104E-01   -104.13  1.0977E-01     75.87
   45.00     20.00    -12.49   -18.26   -11.47      0.0000    -27.24 LINEAR  1.8692E-01   -108.47  9.6212E-02     71.53
   50.00     20.00    -13.95   -18.89   -12.75      0.0000    -29.52 LINEAR  1.5799E-01   -115.79  8.9460E-02     64.21
   55.00     20.00    -14.92   -18.87   -13.45      0.0000    -32.40 LINEAR  1.4138E-01   -123.26  8.9715E-02     56.74
   60.00     20.00    -15.65   -18.41   -13.80      0.0000    -36.05 LINEAR  1.2997E-01   -128.58  9.4610E-02     51.42
   65.00     20.00    -16.52   -17.82   -14.11      0.0000    -40.74 LINEAR  1.1758E-01   -131.37  1.0126E-01     48.63
   70.00     20.00    -17.82   -17.28   -14.53      0.0000    -46.78 LINEAR  1.0120E-01   -132.37  1.0770E-01     47.63
   75.00     20.00    -19.83   -16.87   -15.09      0.0000    -54.58 LINEAR  8.0319E-02   -132.38  1.1295E-01     47.62
   80.00     20.00    -23.01   -16.58   -15.69      0.0000    -64.49 LINEAR  5.5675E-02   -132.01  1.1670E-01     47.99
   85.00     20.00    -28.84   -16.42   -16.18      0.0000    -76.53 LINEAR  2.8473E-02   -131.65  1.1891E-01     48.35
   90.00     20.00   -999.99   -16.37   -16.37      0.0000     90.00 LINEAR  1.6774E-12     48.49  1.1963E-01     48.49
   95.00     20.00    -28.84   -16.42   -16.18      0.0000     76.53 LINEAR  2.8473E-02     48.35  1.1891E-01     48.35
  100.00     20.00    -23.01   -16.58   -15.69      0.0000     64.49 LINEAR  5.5675E-02     47.99  1.1670E-01     47.99
  105.00     20.00    -19.83   -16.87   -15.09      0.0000     54.58 LINEAR  8.0319E-02     47.62  1.1295E-01     47.62
  110.00     20.00    -17.82   -17.28   -14.53      0.0000     46.78 LINEAR  1.0120E-01     47.63  1.0770E-01     47.63
  115.00     20.00    -16.52   -17.82   -14.11      0.0000     40.74 LINEAR  1.1758E-01     48.63  1.0126E-01     48.63
  120.00     20.00    -15.65   -18.41   -13.80      0.0000     36.05 LINEAR  1.2997E-01     51.42  9.4610E-02     51.42
  125.00     20.00    -14.92   -18.87   -13.45      0.0000     32.40 LINEAR  1.4138E-01     56.74  8.9715E-02     56.74
  130.00     20.00    -13.95   -18.89   -12.75      0.0000     29.52 LINEAR  1.5799E-01     64.21  8.9460E-02     64.21
  135.00     20.00    -12.49   -18.26   -11.47      0.0000     27.24 LINEAR  1.8692E-01     71.53  9.6212E-02     71.53
  140.00     20.00    -10.65   -17.12    -9.77      0.0000     25.41 LINEAR  2.3104E-01     75.87  1.0977E-01     75.87
  145.00     20.00     -8.78   -15.83    -8.00      0.0000     23.96 LINEAR  2.8653E-01     76.11  1.2731E-01     76.11
  150.00     20.00     -7.17   -14.70    -6.46      0.0000     22.80 LINEAR  3.4494E-01     72.77  1.4497E-01     72.77
  155.00     20.00     -5.97   -13.90    -5.32      0.0000     21.88 LINEAR  3.9597E-01     66.83  1.5902E-01     66.83
  160.00     20.00     -5.26   -13.50    -4.65      0.0000     21.17 LINEAR  4.2977E-01     59.23  1.6646E-01     59.23
  165.00     20.00     -5.08   -13.56    -4.50      0.0000     20.65 LINEAR  4.3883E-01     50.79  1.6536E-01     50.79
  170.00     20.00     -5.47   -14.11    -4.91      0.0000     20.28 LINEAR  4.1978E-01     42.31  1.5515E-01     42.31
  175.00     20.00     -6.45   -15.20    -5.91      0.0000     20.07 LINEAR  3.7463E-01     34.81  1.3687E-01     34.81
  180.00     20.00     -8.06   -16.84    -7.52      0.0000     20.00 LINEAR  3.1132E-01     29.82  1.1331E-01     29.82
    0.00     25.00     -8.38   -15.00    -7.52      0.0000    -25.00 LINEAR  3.0026E-01   -150.18  1.4001E-01     29.82
    5.00     25.00     -6.45   -13.05    -5.59      0.0000    -25.08 LINEAR  3.7472E-01   -143.55  1.7540E-01     36.45
   10.00     25.00     -5.41   -11.91    -4.54      0.0000    -25.34 LINEAR  4.2224E-01   -133.62  1.9993E-01     46.38
   15.00     25.00     -5.22   -11.55    -4.31      0.0000    -25.77 LINEAR  4.3165E-01   -122.88  2.0838E-01     57.12
   20.00     25.00     -5.82   -11.91    -4.87      0.0000    -26.39 LINEAR  4.0292E-01   -113.03  1.9994E-01     66.97
   25.00     25.00     -7.15   -12.92    -6.13      0.0000    -27.23 LINEAR  3.4592E-01   -105.76  1.7798E-01     74.24
   30.00     25.00     -9.04   -14.41    -7.93      0.0000    -28.30 LINEAR  2.7825E-01   -103.30  1.4983E-01     76.70
   35.00     25.00    -11.00   -15.89    -9.78      0.0000    -29.65 LINEAR  2.2205E-01   -107.96  1.2640E-01     72.04
   40.00     25.00    -12.11   -16.42   -10.74      0.0000    -31.33 LINEAR  1.9529E-01   -118.32  1.1888E-01     61.68
   45.00     25.00    -12.10   -15.72   -10.53      0.0000    -33.40 LINEAR  1.9556E-01   -127.03  1.2896E-01     52.97
   50.00     25.00    -11.75   -14.54    -9.92      0.0000    -35.96 LINEAR  2.0352E-01   -129.94  1.4764E-01     50.06
   55.00     25.00    -11.71   -13.51    -9.51      0.0000    -39.11 LINEAR  2.0452E-01   -128.45  1.6627E-01     51.55
   60.00     25.00    -12.18   -12.78    -9.46      0.0000    -43.00 LINEAR  1.9385E-01   -124.77  1.8079E-01     55.23
   65.00     25.00    -13.19   -12.34    -9.73      0.0000    -47.81 LINEAR  1.7247E-01   -120.33  1.9030E-01     59.67
   70.00     25.00    -14.80   -12.10   -10.23      0.0000    -53.74 LINEAR  1.4339E-01   -116.00  1.9549E-01     64.00
   75.00     25.00    -17.12   -12.01   -10.84      0.0000    -60.97 LINEAR  1.0969E-01   -112.26  1.9763E-01     67.74
   80.00     25.00    -20.57   -11.99   -11.43      0.0000    -69.58 LINEAR  7.3751E-02   -109.42  1.9805E-01     70.58
   85.00     25.00    -26.57   -12.00   -11.85      0.0000    -79.41 LINEAR  3.6977E-02   -107.65  1.9784E-01     72.35
   90.00     25.00   -999.99   -12.01   -12.01      0.0000     90.00 LINEAR  2.1636E-12     72.95  1.9769E-01     72.95
[...]
  100.00    340.00    -35.57   -29.14   -28.25      0.0000    -64.49 LINEAR  1.4891E-02     40.39  3.1213E-02   -139.61
  105.00    340.00    -31.54   -28.57   -26.80      0.0000    -54.58 LINEAR  2.3683E-02     34.50  3.3304E-02   -145.50
  110.00    340.00    -28.10   -27.56   -24.82      0.0000    -46.78 LINEAR  3.5159E-02     28.21  3.7415E-02   -151.79
  115.00    340.00    -24.84   -26.14   -22.43      0.0000    -40.74 LINEAR  5.1209E-02     23.38  4.4102E-02   -156.62
  120.00    340.00    -21.71   -24.47   -19.87      0.0000    -36.05 LINEAR  7.3388E-02     21.22  5.3422E-02   -158.78
  125.00    340.00    -18.83   -22.78   -17.36      0.0000    -32.40 LINEAR  1.0229E-01     21.99  6.4911E-02   -158.01
  130.00    340.00    -16.28   -21.22   -15.07      0.0000    -29.52 LINEAR  1.3717E-01     25.33  7.7673E-02   -154.67
  135.00    340.00    -14.13   -19.90   -13.11      0.0000    -27.24 LINEAR  1.7569E-01     30.69  9.0431E-02   -149.31
  140.00    340.00    -12.43   -18.89   -11.54      0.0000    -25.41 LINEAR  2.1378E-01     37.51  1.0157E-01   -142.49
  145.00    340.00    -11.21   -18.26   -10.43      0.0000    -23.96 LINEAR  2.4590E-01     45.19  1.0926E-01   -134.81
  150.00    340.00    -10.53   -18.06    -9.83      0.0000    -22.80 LINEAR  2.6577E-01     53.07  1.1170E-01   -126.93
  155.00    340.00    -10.47   -18.39    -9.82      0.0000    -21.88 LINEAR  2.6781E-01     60.19  1.0755E-01   -119.81
  160.00    340.00    -11.08   -19.32   -10.47      0.0000    -21.17 LINEAR  2.4961E-01     64.94  9.6682E-02   -115.06
  165.00    340.00    -12.33   -20.80   -11.75      0.0000    -20.65 LINEAR  2.1623E-01     64.15  8.1479E-02   -115.85
  170.00    340.00    -13.54   -22.18   -12.98      0.0000    -20.28 LINEAR  1.8809E-01     53.07  6.9514E-02   -126.93
  175.00    340.00    -12.95   -21.70   -12.41      0.0000    -20.07 LINEAR  2.0116E-01     34.60  7.3496E-02   -145.40
  180.00    340.00    -10.61   -19.38   -10.07      0.0000    -20.00 LINEAR  2.6360E-01     23.89  9.5943E-02   -156.11
    0.00    345.00    -10.37   -21.81   -10.07      0.0000     15.00 LINEAR  2.7096E-01   -156.11  7.2603E-02   -156.11
    5.00    345.00    -12.25   -23.66   -11.95      0.0000     15.05 LINEAR  2.1805E-01   -149.17  5.8649E-02   -149.17
   10.00    345.00    -13.43   -24.74   -13.12      0.0000     15.22 LINEAR  1.9043E-01   -136.12  5.1813E-02   -136.12
   15.00    345.00    -13.32   -24.45   -12.99      0.0000     15.50 LINEAR  1.9294E-01   -123.08  5.3523E-02   -123.08
   20.00    345.00    -12.50   -23.40   -12.16      0.0000     15.92 LINEAR  2.1199E-01   -116.02  6.0447E-02   -116.02
   25.00    345.00    -11.75   -22.33   -11.39      0.0000     16.47 LINEAR  2.3107E-01   -114.74  6.8315E-02   -114.74
   30.00    345.00    -11.37   -21.56   -10.98      0.0000     17.19 LINEAR  2.4130E-01   -117.02  7.4660E-02   -117.02
   35.00    345.00    -11.42   -21.12   -10.98      0.0000     18.11 LINEAR  2.4010E-01   -121.19  7.8538E-02   -121.19
   40.00    345.00    -11.85   -20.98   -11.35      0.0000     19.28 LINEAR  2.2831E-01   -126.25  7.9859E-02   -126.25
   45.00    345.00    -12.65   -21.08   -12.06      0.0000     20.75 LINEAR  2.0841E-01   -131.59  7.8974E-02   -131.59
   50.00    345.00    -13.76   -21.36   -13.06      0.0000     22.63 LINEAR  1.8336E-01   -136.83  7.6433E-02   -136.83
   55.00    345.00    -15.17   -21.78   -14.31      0.0000     25.04 LINEAR  1.5591E-01   -141.72  7.2833E-02   -141.72
   60.00    345.00    -16.86   -22.28   -15.77      0.0000     28.19 LINEAR  1.2826E-01   -146.09  6.8736E-02   -146.09
   65.00    345.00    -18.86   -22.82   -17.39      0.0000     32.38 LINEAR  1.0191E-01   -149.83  6.4614E-02   -149.83
   70.00    345.00    -21.22   -23.34   -19.14      0.0000     38.08 LINEAR  7.7655E-02   -152.89  6.0837E-02   -152.89
   75.00    345.00    -24.11   -23.81   -20.94      0.0000     45.99 LINEAR  5.5709E-02   -155.23  5.7675E-02   -155.23
   80.00    345.00    -27.94   -24.17   -22.65      0.0000     57.05 LINEAR  3.5843E-02   -156.88  5.5307E-02   -156.88
   85.00    345.00    -34.16   -24.40   -23.96      0.0000     71.98 LINEAR  1.7515E-02   -157.85  5.3847E-02   -157.85
   90.00    345.00   -999.99   -24.48   -24.48      0.0000    -90.00 LINEAR  1.0162E-12     21.83  5.3355E-02   -158.17
   95.00    345.00    -34.16   -24.40   -23.96      0.0000    -71.98 LINEAR  1.7515E-02     22.15  5.3847E-02   -157.85
  100.00    345.00    -27.94   -24.17   -22.65      0.0000    -57.05 LINEAR  3.5843E-02     23.12  5.5307E-02   -156.88
  105.00    345.00    -24.11   -23.81   -20.94      0.0000    -45.99 LINEAR  5.5709E-02     24.77  5.7675E-02   -155.23
  110.00    345.00    -21.22   -23.34   -19.14      0.0000    -38.08 LINEAR  7.7655E-02     27.11  6.0837E-02   -152.89
  115.00    345.00    -18.86   -22.82   -17.39      0.0000    -32.38 LINEAR  1.0191E-01     30.17  6.4614E-02   -149.83
  120.00    345.00    -16.86   -22.28   -15.77      0.0000    -28.19 LINEAR  1.2826E-01     33.91  6.8736E-02   -146.09
  125.00    345.00    -15.17   -21.78   -14.31      0.0000    -25.04 LINEAR  1.5591E-01     38.28  7.2833E-02   -141.72
  130.00    345.00    -13.76   -21.36   -13.06      0.0000    -22.63 LINEAR  1.8336E-01     43.17  7.6433E-02   -136.83
  135.00    345.00    -12.65   -21.08   -12.06      0.0000    -20.75 LINEAR  2.0841E-01     48.41  7.8974E-02   -131.59
  140.00    345.00    -11.85   -20.98   -11.35      0.0000    -19.28 LINEAR  2.2831E-01     53.75  7.9859E-02   -126.25
  145.00    345.00    -11.42   -21.12   -10.98      0.0000    -18.11 LINEAR  2.4010E-01     58.81  7.8538E-02   -121.19
  150.00    345.00    -11.37   -21.56   -10.98      0.0000    -17.19 LINEAR  2.4130E-01     62.98  7.4660E-02   -117.02
  155.00    345.00    -11.75   -22.33   -11.39      0.0000    -16.47 LINEAR  2.3107E-01     65.26  6.8315E-02   -114.74
  160.00    345.00    -12.50   -23.40   -12.16      0.0000    -15.92 LINEAR  2.1199E-01     63.98  6.0447E-02   -116.02
  165.00    345.00    -13.32   -24.45   -12.99      0.0000    -15.50 LINEAR  1.9294E-01     56.92  5.3523E-02   -123.08
  170.00    345.00    -13.43   -24.74   -13.12      0.0000    -15.22 LINEAR  1.9043E-01     43.88  5.1813E-02   -136.12
  175.00    345.00    -12.25   -23.66   -11.95      0.0000    -15.05 LINEAR  2.1805E-01     30.83  5.8649E-02   -149.17
  180.00    345.00    -10.37   -21.81   -10.07      0.0000    -15.00 LINEAR  2.7096E-01     23.89  7.2603E-02   -156.11
    0.00    350.00    -10.20   -25.27   -10.07      0.0000     10.00 LINEAR  2.7626E-01   -156.11  4.8712E-02   -156.11
    5.00    350.00    -11.52   -26.57   -11.39      0.0000     10.04 LINEAR  2.3714E-01   -152.28  4.1974E-02   -152.28
   10.00    350.00    -12.74   -27.68   -12.60      0.0000     10.15 LINEAR  2.0621E-01   -145.46  3.6921E-02   -145.46
   15.00    350.00    -13.56   -28.34   -13.42      0.0000     10.35 LINEAR  1.8754E-01   -136.49  3.4235E-02   -136.49
   20.00    350.00    -13.86   -28.40   -13.71      0.0000     10.63 LINEAR  1.8116E-01   -127.56  3.3993E-02   -127.56
   25.00    350.00    -13.79   -28.01   -13.63      0.0000     11.01 LINEAR  1.8269E-01   -120.77  3.5543E-02   -120.77
   30.00    350.00    -13.62   -27.44   -13.44      0.0000     11.51 LINEAR  1.8640E-01   -116.82  3.7953E-02   -116.82
   35.00    350.00    -13.54   -26.88   -13.34      0.0000     12.15 LINEAR  1.8801E-01   -115.27  4.0471E-02   -115.27
   40.00    350.00    -13.67   -26.43   -13.44      0.0000     12.96 LINEAR  1.8530E-01   -115.45  4.2653E-02   -115.45
   45.00    350.00    -14.03   -26.10   -13.77      0.0000     14.00 LINEAR  1.7767E-01   -116.72  4.4304E-02   -116.72
   50.00    350.00    -14.65   -25.89   -14.34      0.0000     15.34 LINEAR  1.6547E-01   -118.63  4.5390E-02   -118.63
   55.00    350.00    -15.53   -25.78   -15.14      0.0000     17.09 LINEAR  1.4954E-01   -120.84  4.5971E-02   -120.84
   60.00    350.00    -16.69   -25.74   -16.18      0.0000     19.43 LINEAR  1.3088E-01   -123.12  4.6154E-02   -123.12
   65.00    350.00    -18.17   -25.76   -17.47      0.0000     22.65 LINEAR  1.1040E-01   -125.30  4.6061E-02   -125.30
   70.00    350.00    -20.05   -25.81   -19.03      0.0000     27.27 LINEAR  8.8855E-02   -127.23  4.5809E-02   -127.23
   75.00    350.00    -22.53   -25.86   -20.88      0.0000     34.27 LINEAR  6.6789E-02   -128.83  4.5502E-02   -128.83
   80.00    350.00    -26.05   -25.92   -22.97      0.0000     45.44 LINEAR  4.4536E-02   -130.03  4.5223E-02   -130.03
   85.00    350.00    -32.08   -25.95   -25.01      0.0000     63.70 LINEAR  2.2258E-02   -130.76  4.5031E-02   -130.76
   90.00    350.00   -999.99   -25.97   -25.97      0.0000    -90.00 LINEAR  1.3014E-12     48.99  4.4964E-02   -131.01
   95.00    350.00    -32.08   -25.95   -25.01      0.0000    -63.70 LINEAR  2.2258E-02     49.24  4.5031E-02   -130.76
  100.00    350.00    -26.05   -25.92   -22.97      0.0000    -45.44 LINEAR  4.4536E-02     49.97  4.5223E-02   -130.03
  105.00    350.00    -22.53   -25.86   -20.88      0.0000    -34.27 LINEAR  6.6789E-02     51.17  4.5502E-02   -128.83
  110.00    350.00    -20.05   -25.81   -19.03      0.0000    -27.27 LINEAR  8.8855E-02     52.77  4.5809E-02   -127.23
  115.00    350.00    -18.17   -25.76   -17.47      0.0000    -22.65 LINEAR  1.1040E-01     54.70  4.6061E-02   -125.30
  120.00    350.00    -16.69   -25.74   -16.18      0.0000    -19.43 LINEAR  1.3088E-01     56.88  4.6154E-02   -123.12
  125.00    350.00    -15.53   -25.78   -15.14      0.0000    -17.09 LINEAR  1.4954E-01     59.16  4.5971E-02   -120.84
  130.00    350.00    -14.65   -25.89   -14.34      0.0000    -15.34 LINEAR  1.6547E-01     61.37  4.5390E-02   -118.63
  135.00    350.00    -14.03   -26.10   -13.77      0.0000    -14.00 LINEAR  1.7767E-01     63.28  4.4304E-02   -116.72
  140.00    350.00    -13.67   -26.43   -13.44      0.0000    -12.96 LINEAR  1.8530E-01     64.55  4.2653E-02   -115.45
  145.00    350.00    -13.54   -26.88   -13.34      0.0000    -12.15 LINEAR  1.8801E-01     64.73  4.0471E-02   -115.27
  150.00    350.00    -13.62   -27.44   -13.44      0.0000    -11.51 LINEAR  1.8640E-01     63.18  3.7953E-02   -116.82
  155.00    350.00    -13.79   -28.01   -13.63      0.0000    -11.01 LINEAR  1.8269E-01     59.23  3.5543E-02   -120.77
  160.00    350.00    -13.86   -28.40   -13.71      0.0000    -10.63 LINEAR  1.8116E-01     52.44  3.3993E-02   -127.56
  165.00    350.00    -13.56   -28.34   -13.42      0.0000    -10.35 LINEAR  1.8754E-01     43.51  3.4235E-02   -136.49
  170.00    350.00    -12.74   -27.68   -12.60      0.0000    -10.15 LINEAR  2.0621E-01     34.54  3.6921E-02   -145.46
  175.00    350.00    -11.52   -26.57   -11.39      0.0000    -10.04 LINEAR  2.3714E-01     27.72  4.1974E-02   -152.28
  180.00    350.00    -10.20   -25.27   -10.07      0.0000    -10.00 LINEAR  2.7626E-01     23.89  4.8712E-02   -156.11
    0.00    355.00    -10.10   -31.26   -10.07      0.0000      5.00 LINEAR  2.7945E-01   -156.11  2.4449E-02   -156.11
    5.00    355.00    -10.80   -31.93   -10.77      0.0000      5.02 LINEAR  2.5773E-01   -154.62  2.2635E-02   -154.62
   10.00    355.00    -11.59   -32.62   -11.55      0.0000      5.08 LINEAR  2.3540E-01   -152.54  2.0912E-02   -152.54
   15.00    355.00    -12.43   -33.29   -12.40      0.0000      5.18 LINEAR  2.1357E-01   -149.88  1.9344E-02   -149.88
   20.00    355.00    -13.31   -33.93   -13.27      0.0000      5.32 LINEAR  1.9312E-01   -146.69  1.7981E-02   -146.69
   25.00    355.00    -14.19   -34.49   -14.15      0.0000      5.51 LINEAR  1.7455E-01   -143.11  1.6850E-02   -143.11
   30.00    355.00    -15.05   -34.96   -15.01      0.0000      5.77 LINEAR  1.5798E-01   -139.35  1.5959E-02   -139.35
   35.00    355.00    -15.91   -35.34   -15.86      0.0000      6.10 LINEAR  1.4317E-01   -135.64  1.5291E-02   -135.64
   40.00    355.00    -16.77   -35.61   -16.71      0.0000      6.52 LINEAR  1.2969E-01   -132.19  1.4812E-02   -132.19
   45.00    355.00    -17.66   -35.81   -17.59      0.0000      7.05 LINEAR  1.1703E-01   -129.15  1.4480E-02   -129.15
   50.00    355.00    -18.62   -35.95   -18.54      0.0000      7.75 LINEAR  1.0473E-01   -126.60  1.4255E-02   -126.60
   55.00    355.00    -19.71   -36.04   -19.61      0.0000      8.67 LINEAR  9.2448E-02   -124.55  1.4101E-02   -124.55
   60.00    355.00    -20.97   -36.11   -20.84      0.0000      9.92 LINEAR  7.9970E-02   -122.98  1.3993E-02   -122.98
   65.00    355.00    -22.48   -36.16   -22.29      0.0000     11.70 LINEAR  6.7208E-02   -121.81  1.3913E-02   -121.81
   70.00    355.00    -24.35   -36.19   -24.08      0.0000     14.35 LINEAR  5.4152E-02   -120.97  1.3852E-02   -120.97
   75.00    355.00    -26.80   -36.22   -26.33      0.0000     18.68 LINEAR  4.0840E-02   -120.40  1.3805E-02   -120.40
   80.00    355.00    -30.29   -36.25   -29.31      0.0000     26.74 LINEAR  2.7333E-02   -120.03  1.3771E-02   -120.03
   85.00    355.00    -36.29   -36.26   -33.26      0.0000     45.11 LINEAR  1.3698E-02   -119.83  1.3750E-02   -119.83
   90.00    355.00   -999.99   -36.26   -36.26      0.0000    -90.00 LINEAR  8.0169E-13     60.23  1.3743E-02   -119.77
   95.00    355.00    -36.29   -36.26   -33.26      0.0000    -45.11 LINEAR  1.3698E-02     60.17  1.3750E-02   -119.83
  100.00    355.00    -30.29   -36.25   -29.31      0.0000    -26.74 LINEAR  2.7333E-02     59.97  1.3771E-02   -120.03
  105.00    355.00    -26.80   -36.22   -26.33      0.0000    -18.68 LINEAR  4.0840E-02     59.60  1.3805E-02   -120.40
  110.00    355.00    -24.35   -36.19   -24.08      0.0000    -14.35 LINEAR  5.4152E-02     59.03  1.3852E-02   -120.97
  115.00    355.00    -22.48   -36.16   -22.29      0.0000    -11.70 LINEAR  6.7208E-02     58.19  1.3913E-02   -121.81
  120.00    355.00    -20.97   -36.11   -20.84      0.0000     -9.92 LINEAR  7.9970E-02     57.02  1.3993E-02   -122.98
  125.00    355.00    -19.71   -36.04   -19.61      0.0000     -8.67 LINEAR  9.2448E-02     55.45  1.4101E-02   -124.55
  130.00    355.00    -18.62   -35.95   -18.54      0.0000     -7.75 LINEAR  1.0473E-01     53.40  1.4255E-02   -126.60
  135.00    355.00    -17.66   -35.81   -17.59      0.0000     -7.05 LINEAR  1.1703E-01     50.85  1.4480E-02   -129.15
  140.00    355.00    -16.77   -35.61   -16.71      0.0000     -6.52 LINEAR  1.2969E-01     47.81  1.4812E-02   -132.19
  145.00    355.00    -15.91   -35.34   -15.86      0.0000     -6.10 LINEAR  1.4317E-01     44.36  1.5291E-02   -135.64
  150.00    355.00    -15.05   -34.96   -15.01      0.0000     -5.77 LINEAR  1.5798E-01     40.65  1.5959E-02   -139.35
  155.00    355.00    -14.19   -34.49   -14.15      0.0000     -5.51 LINEAR  1.7455E-01     36.89  1.6850E-02   -143.11
  160.00    355.00    -13.31   -33.93   -13.27      0.0000     -5.32 LINEAR  1.9312E-01     33.31  1.7981E-02   -146.69
  165.00    355.00    -12.43   -33.29   -12.40      0.0000     -5.18 LINEAR  2.1357E-01     30.12  1.9344E-02   -149.88
  170.00    355.00    -11.59   -32.62   -11.55      0.0000     -5.08 LINEAR  2.3540E-01     27.46  2.0912E-02   -152.54
  175.00    355.00    -10.80   -31.93   -10.77      0.0000     -5.02 LINEAR  2.5773E-01     25.38  2.2635E-02   -154.62
  180.00    355.00    -10.10   -31.26   -10.07      0.0000     -5.00 LINEAR  2.7945E-01     23.89  2.4449E-02   -156.11
    0.00    360.00    -10.07  -999.99   -10.07      0.0000     -0.00 LINEAR  2.8052E-01   -156.11  5.7264E-12     23.89
    5.00    360.00    -10.12  -999.99   -10.12      0.0000     -0.00 LINEAR  2.7883E-01   -156.19  5.7137E-12     23.81
   10.00    360.00    -10.28  -999.99   -10.28      0.0000     -0.00 LINEAR  2.7383E-01   -156.44  5.6761E-12     23.56
   15.00    360.00    -10.54  -999.99   -10.54      0.0000     -0.00 LINEAR  2.6570E-01   -156.85  5.6153E-12     23.15
   20.00    360.00    -10.90  -999.99   -10.90      0.0000     -0.00 LINEAR  2.5474E-01   -157.41  5.5339E-12     22.59
   25.00    360.00    -11.37  -999.99   -11.37      0.0000     -0.00 LINEAR  2.4131E-01   -158.11  5.4353E-12     21.89
   30.00    360.00    -11.95  -999.99   -11.95      0.0000     -0.00 LINEAR  2.2584E-01   -158.94  5.3234E-12     21.06
   35.00    360.00    -12.63  -999.99   -12.63      0.0000     -0.00 LINEAR  2.0877E-01   -159.87  5.2026E-12     20.13
   40.00    360.00    -13.43  -999.99   -13.43      0.0000     -0.00 LINEAR  1.9053E-01   -160.88  5.0771E-12     19.12
   45.00    360.00    -14.34  -999.99   -14.34      0.0000     -0.00 LINEAR  1.7151E-01   -161.94  4.9514E-12     18.06
   50.00    360.00    -15.38  -999.99   -15.38      0.0000     -0.00 LINEAR  1.5206E-01   -163.02  4.8292E-12     16.98
   55.00    360.00    -16.58  -999.99   -16.58      0.0000     -0.00 LINEAR  1.3246E-01   -164.09  4.7142E-12     15.91
   60.00    360.00    -17.97  -999.99   -17.97      0.0000     -0.00 LINEAR  1.1290E-01   -165.12  4.6093E-12     14.88
   65.00    360.00    -19.61  -999.99   -19.61      0.0000     -0.00 LINEAR  9.3513E-02   -166.06  4.5170E-12     13.94
   70.00    360.00    -21.60  -999.99   -21.60      0.0000     -0.00 LINEAR  7.4375E-02   -166.89  4.4391E-12     13.11
   75.00    360.00    -24.14  -999.99   -24.14      0.0000     -0.00 LINEAR  5.5498E-02   -167.57  4.3772E-12     12.43
   80.00    360.00    -27.70  -999.99   -27.70      0.0000     -0.00 LINEAR  3.6853E-02   -168.07  4.3324E-12     11.93
   85.00    360.00    -33.74  -999.99   -33.74      0.0000     -0.00 LINEAR  1.8381E-02   -168.38  4.3052E-12     11.62
   90.00    360.00   -999.99  -999.99  -999.99      0.0000      0.00         1.0740E-12     11.51  4.2961E-12     11.51
   95.00    360.00    -33.74  -999.99   -33.74      0.0000      0.00 LINEAR  1.8381E-02     11.62  4.3052E-12     11.62
  100.00    360.00    -27.70  -999.99   -27.70      0.0000      0.00 LINEAR  3.6853E-02     11.93  4.3324E-12     11.93
  105.00    360.00    -24.14  -999.99   -24.14      0.0000      0.00 LINEAR  5.5498E-02     12.43  4.3772E-12     12.43
  110.00    360.00    -21.60  -999.99   -21.60      0.0000      0.00 LINEAR  7.4375E-02     13.11  4.4391E-12     13.11
  115.00    360.00    -19.61  -999.99   -19.61      0.0000      0.00 LINEAR  9.3513E-02     13.94  4.5170E-12     13.94
  120.00    360.00    -17.97  -999.99   -17.97      0.0000      0.00 LINEAR  1.1290E-01     14.88  4.6093E-12     14.88
  125.00    360.00    -16.58  -999.99   -16.58      0.0000      0.00 LINEAR  1.3246E-01     15.91  4.7142E-12     15.91
  130.00    360.00    -15.38  -999.99   -15.38      0.0000      0.00 LINEAR  1.5206E-01     16.98  4.8292E-12     16.98
  135.00    360.00    -14.34  -999.99   -14.34      0.0000      0.00 LINEAR  1.7151E-01     18.06  4.9514E-12     18.06
  140.00    360.00    -13.43  -999.99   -13.43      0.0000      0.00 LINEAR  1.9053E-01     19.12  5.0771E-12     19.12
  145.00    360.00    -12.63  -999.99   -12.63      0.0000      0.00 LINEAR  2.0877E-01     20.13  5.2026E-12     20.13
  150.00    360.00    -11.95  -999.99   -11.95      0.0000      0.00 LINEAR  2.2584E-01     21.06  5.3234E-12     21.06
  155.00    360.00    -11.37  -999.99   -11.37      0.0000      0.00 LINEAR  2.4131E-01     21.89  5.4353E-12     21.89
  160.00    360.00    -10.90  -999.99   -10.90      0.0000      0.00 LINEAR  2.5474E-01     22.59  5.5339E-12     22.59
  165.00    360.00    -10.54  -999.99   -10.54      0.0000      0.00 LINEAR  2.6570E-01     23.15  5.6153E-12     23.15
  170.00    360.00    -10.28  -999.99   -10.28      0.0000      0.00 LINEAR  2.7383E-01     23.56  5.6761E-12     23.56
  175.00    360.00    -10.12  -999.99   -10.12      0.0000      0.00 LINEAR  2.7883E-01     23.81  5.7137E-12     23.81
  180.00    360.00    -10.07  -999.99   -10.07      0.0000      0.00 LINEAR  2.8052E-01     23.89  5.7264E-12     23.89
  DATA CARD No:   4 EN   0     0     0     0  0.00000E+00  0.00000E+00  0.00000E+00  0.00000E+00  0.00000E+00  0.00000E+00

  TOTAL RUN TIME: 200 msec