                   ****************************************
                     MINI-NUMERICAL ELECTROMAGNETICS CODE
                                   MININEC
                       04-02-2024              19:32:58
                   ****************************************
 
FREQUENCY (MHZ): 299.8 
    WAVE LENGTH =  1  METERS
 
ENVIRONMENT (+1 FOR FREE SPACE, -1 FOR GROUND PLANE): -1 
 NUMBER OF MEDIA (0 FOR PERFECTLY CONDUCTING GROUND):  0 
 
NO. OF WIRES: 1 
 
WIRE NO. 1 
            COORDINATES                                 END         NO. OF
   X             Y             Z          RADIUS     CONNECTION     SEGMENTS
 0             0             .5                          0 
 0             .5            .5            .001          0             40 
 
                  **** ANTENNA GEOMETRY ****
 
WIRE NO.  1  COORDINATES                                CONNECTION PULSE
X             Y             Z             RADIUS        END1 END2  NO.
 0             .0125         .5            .001           0    1    1
 0             .025          .5            .001           1    1    2
 0             .0375         .5            .001           1    1    3
 0             .05           .5            .001           1    1    4
 0             .0625         .5            .001           1    1    5
 0             7.500001E-02  .5            .001           1    1    6
 0             .0875         .5            .001           1    1    7
 0             .1            .5            .001           1    1    8
 0             .1125         .5            .001           1    1    9
 0             .125          .5            .001           1    1   10
 0             .1375         .5            .001           1    1   11
 0             .15           .5            .001           1    1   12
 0             .1625         .5            .001           1    1   13
 0             .175          .5            .001           1    1   14
 0             .1875         .5            .001           1    1   15
 0             .2            .5            .001           1    1   16
 0             .2125         .5            .001           1    1   17
 0             .225          .5            .001           1    1   18
 0             .2375         .5            .001           1    1   19
 0             .25           .5            .001           1    1   20
 0             .2625         .5            .001           1    1   21
 0             .275          .5            .001           1    1   22
 0             .2875         .5            .001           1    1   23
 0             .3            .5            .001           1    1   24
 0             .3125         .5            .001           1    1   25
 0             .325          .5            .001           1    1   26
 0             .3375         .5            .001           1    1   27
 0             .35           .5            .001           1    1   28
 0             .3625         .5            .001           1    1   29
 0             .375          .5            .001           1    1   30
 0             .3875         .5            .001           1    1   31
 0             .4            .5            .001           1    1   32
 0             .4125         .5            .001           1    1   33
 0             .425          .5            .001           1    1   34
 0             .4375         .5            .001           1    1   35
 0             .45           .5            .001           1    1   36
 0             .4625         .5            .001           1    1   37
 0             .475          .5            .001           1    1   38
 0             .4875         .5            .001           1    0   39
 
NO. OF SOURCES :  1 
PULSE NO., VOLTAGE MAGNITUDE, PHASE (DEGREES):  20 , 1 , 0 
NUMBER OF LOADS 0 
 
********************    SOURCE DATA     ********************
PULSE  20     VOLTAGE = ( 1 , 0 J)
              CURRENT = ( 1.183446E-02 ,-3.700385E-03 J)
              IMPEDANCE = ( 76.97347 , 24.06798 J)
              POWER =  5.917229E-03  WATTS
 
********************    CURRENT DATA    ********************
 
WIRE NO.  1 :
PULSE         REAL          IMAGINARY     MAGNITUDE     PHASE
 NO.          (AMPS)        (AMPS)        (AMPS)        (DEGREES)
E              0             0             0             0 
 1             1.26149E-03  -5.953004E-04  1.394898E-03 -25.26274 
 2             2.273498E-03 -1.061409E-03  2.50906E-03  -25.02606 
 3             3.220448E-03 -1.487255E-03  3.547282E-03 -24.78826 
 4             4.120137E-03 -1.881536E-03  4.529426E-03 -24.54468 
 5             4.978501E-03 -2.247202E-03  5.462178E-03 -24.29352 
 6             5.796569E-03 -2.584839E-03  6.346778E-03 -24.03332 
 7             6.573301E-03 -2.894051E-03  7.182187E-03 -23.76263 
 8             7.306667E-03 -3.173992E-03  7.966278E-03 -23.47996 
 9             7.994183E-03 -3.423593E-03  8.696431E-03 -23.18354 
 10            8.633147E-03 -3.641704E-03  9.369804E-03 -22.87138 
 11            9.220846E-03 -3.827158E-03  9.983543E-03 -22.54114 
 12            9.754619E-03 -3.97879E-03   1.053486E-02 -22.18995 
 13            1.023198E-02 -4.095457E-03  1.102117E-02 -21.81427 
 14            1.065063E-02 -4.175995E-03  1.144005E-02 -21.40961 
 15            .0110085     -4.219148E-03  1.178933E-02 -20.96996 
 16            1.130381E-02 -4.22339E-03   1.206703E-02 -20.48696 
 17            1.153508E-02 -4.186532E-03  1.227131E-02 -19.94783 
 18            1.170111E-02 -4.104589E-03  1.240014E-02 -19.33017 
 19            1.180108E-02 -3.969052E-03  1.245066E-02 -18.58931 
 20            1.183446E-02 -3.700385E-03  1.239949E-02 -17.36336 
 21            1.180108E-02 -3.969052E-03  1.245065E-02 -18.58932 
 22            1.170111E-02 -4.104588E-03  1.240015E-02 -19.33016 
 23            1.153508E-02 -4.186532E-03  1.227131E-02 -19.94781 
 24            1.130382E-02 -4.223392E-03  1.206704E-02 -20.48695 
 25            1.100852E-02 -4.219152E-03  1.178934E-02 -20.96996 
 26            1.065066E-02 -4.176003E-03  1.144008E-02 -21.40959 
 27            1.023202E-02 -4.095468E-03  1.102121E-02 -21.81425 
 28            9.75467E-03  -3.978805E-03  1.053492E-02 -22.18992 
 29            9.220898E-03 -3.827175E-03  9.983597E-03 -22.54111 
 30            8.633211E-03 -3.641726E-03  9.369871E-03 -22.87135 
 31            7.994251E-03 -3.423615E-03  8.696502E-03 -23.18349 
 32            7.306742E-03 -3.174015E-03  7.966357E-03 -23.4799 
 33            6.573373E-03 -2.894075E-03  7.182262E-03 -23.76257 
 34            5.796639E-03 -2.584861E-03  6.346851E-03 -24.03325 
 35            4.978567E-03 -2.247224E-03  5.462246E-03 -24.29345 
 36            4.120194E-03 -1.881556E-03  4.529487E-03 -24.54461 
 37            3.220496E-03 -1.487272E-03  3.547333E-03 -24.78819 
 38            2.273534E-03 -1.061421E-03  2.509098E-03 -25.02596 
 39            1.261511E-03 -5.95307E-04   1.394919E-03 -25.26263 
E              0             0             0             0 
