                   ****************************************
                     MINI-NUMERICAL ELECTROMAGNETICS CODE
                                   MININEC
                   ****************************************

FREQUENCY (MHZ): 299.8
    WAVE LENGTH =  1  METERS

ENVIRONMENT (+1 FOR FREE SPACE, -1 FOR GROUND PLANE): -1
 NUMBER OF MEDIA (0 FOR PERFECTLY CONDUCTING GROUND):  0

NO. OF GEO-OBJECTS: 1

WIRE NO. 1
            COORDINATES                                 END         NO. OF
   X             Y             Z          RADIUS     CONNECTION     SEGMENTS
 0             0             .5                         0
 0             .5            .5            .001         0             40

                  **** ANTENNA GEOMETRY ****

WIRE NO.  1 COORDINATES                                 CONNECTION PULSE
X             Y             Z             RADIUS        END1 END2  NO.
 0             .0125         .5            .001          0    1   1
 0             .025          .5            .001          1    1   2
 0             .0375         .5            .001          1    1   3
 0             .05           .5            .001          1    1   4
 0             .0625         .5            .001          1    1   5
 0             .075          .5            .001          1    1   6
 0             .0875         .5            .001          1    1   7
 0             .1            .5            .001          1    1   8
 0             .1125         .5            .001          1    1   9
 0             .125          .5            .001          1    1  10
 0             .1375         .5            .001          1    1  11
 0             .15           .5            .001          1    1  12
 0             .1625         .5            .001          1    1  13
 0             .175          .5            .001          1    1  14
 0             .1875         .5            .001          1    1  15
 0             .2            .5            .001          1    1  16
 0             .2125         .5            .001          1    1  17
 0             .225          .5            .001          1    1  18
 0             .2375         .5            .001          1    1  19
 0             .25           .5            .001          1    1  20
 0             .2625         .5            .001          1    1  21
 0             .275          .5            .001          1    1  22
 0             .2875         .5            .001          1    1  23
 0             .3            .5            .001          1    1  24
 0             .3125         .5            .001          1    1  25
 0             .325          .5            .001          1    1  26
 0             .3375         .5            .001          1    1  27
 0             .35           .5            .001          1    1  28
 0             .3625         .5            .001          1    1  29
 0             .375          .5            .001          1    1  30
 0             .3875         .5            .001          1    1  31
 0             .4            .5            .001          1    1  32
 0             .4125         .5            .001          1    1  33
 0             .425          .5            .001          1    1  34
 0             .4375         .5            .001          1    1  35
 0             .45           .5            .001          1    1  36
 0             .4625         .5            .001          1    1  37
 0             .475          .5            .001          1    1  38
 0             .4875         .5            .001          1    0  39

NO. OF SOURCES :  1
PULSE NO., VOLTAGE MAGNITUDE, PHASE (DEGREES): 20 , 1 , 0
NUMBER OF LOADS 0

********************    SOURCE DATA     ********************
PULSE 20      VOLTAGE = ( 1 , 0 J)
              CURRENT = ( 1.183610E-02 , -3.698488E-03 J)
              IMPEDANCE = ( 76.97169 ,  24.05173 J)
              POWER =  5.918052E-03  WATTS

********************    CURRENT DATA    ********************

WIRE NO.  1 :
PULSE         REAL          IMAGINARY     MAGNITUDE     PHASE
 NO.          (AMPS)        (AMPS)        (AMPS)        (DEGREES)
E              0             0             0             0
 1             1.261684E-03 -5.951018E-04  1.394988E-03 -25.25197 
 2             2.273844E-03 -1.061050E-03  2.509221E-03 -25.01531 
 3             3.220932E-03 -1.486747E-03  3.547509E-03 -24.77753 
 4             4.120751E-03 -1.880884E-03  4.529714E-03 -24.53395 
 5             4.979240E-03 -2.246412E-03  5.462527E-03 -24.28278 
 6             5.797424E-03 -2.583918E-03  6.347185E-03 -24.02258 
 7             6.574261E-03 -2.893006E-03  7.182646E-03 -23.75191 
 8             7.307730E-03 -3.172827E-03  7.966790E-03 -23.46924 
 9             7.995335E-03 -3.422317E-03  8.696990E-03 -23.17283 
 10            8.634385E-03 -3.640326E-03  9.370409E-03 -22.86068 
 11            9.222157E-03 -3.825684E-03  9.984189E-03 -22.53044 
 12            9.756004E-03 -3.977230E-03  1.053556E-02 -22.17925 
 13            1.023343E-02 -4.093819E-03  1.102190E-02 -21.80357 
 14            1.065212E-02 -4.174288E-03  1.144082E-02 -21.39891 
 15            1.101004E-02 -4.217382E-03  1.179013E-02 -20.95928 
 16            1.130539E-02 -4.221577E-03  1.206787E-02 -20.47628 
 17            1.153668E-02 -4.184681E-03  1.227219E-02 -19.93714 
 18            1.170274E-02 -4.102712E-03  1.240107E-02 -19.31949 
 19            1.180272E-02 -3.967160E-03  1.245161E-02 -18.57865 
 20            1.183610E-02 -3.698488E-03  1.240049E-02 -17.35272 
 21            1.180272E-02 -3.967160E-03  1.245161E-02 -18.57865 
 22            1.170274E-02 -4.102712E-03  1.240107E-02 -19.31949 
 23            1.153668E-02 -4.184681E-03  1.227219E-02 -19.93714 
 24            1.130539E-02 -4.221577E-03  1.206787E-02 -20.47628 
 25            1.101004E-02 -4.217382E-03  1.179013E-02 -20.95928 
 26            1.065212E-02 -4.174288E-03  1.144082E-02 -21.39891 
 27            1.023343E-02 -4.093819E-03  1.102190E-02 -21.80357 
 28            9.756004E-03 -3.977230E-03  1.053556E-02 -22.17925 
 29            9.222157E-03 -3.825684E-03  9.984189E-03 -22.53044 
 30            8.634385E-03 -3.640326E-03  9.370409E-03 -22.86068 
 31            7.995335E-03 -3.422317E-03  8.696990E-03 -23.17283 
 32            7.307730E-03 -3.172827E-03  7.966790E-03 -23.46924 
 33            6.574261E-03 -2.893006E-03  7.182646E-03 -23.75191 
 34            5.797424E-03 -2.583918E-03  6.347185E-03 -24.02258 
 35            4.979240E-03 -2.246412E-03  5.462527E-03 -24.28278 
 36            4.120751E-03 -1.880884E-03  4.529714E-03 -24.53395 
 37            3.220932E-03 -1.486747E-03  3.547509E-03 -24.77753 
 38            2.273844E-03 -1.061050E-03  2.509221E-03 -25.01531 
 39            1.261684E-03 -5.951018E-04  1.394988E-03 -25.25197 
E              0             0             0             0

********************     FAR FIELD      ********************

ZENITH ANGLE : INITIAL,INCREMENT,NUMBER: 0 , 10 , 1
AZIMUTH ANGLE: INITIAL,INCREMENT,NUMBER: 0 , 10 , 1

********************    PATTERN DATA    ********************
ZENITH        AZIMUTH       VERTICAL      HORIZONTAL    TOTAL
 ANGLE         ANGLE        PATTERN (DB)  PATTERN (DB)  PATTERN (DB)
 0             0            -999          -999          -999     
