                   ****************************************
                     MINI-NUMERICAL ELECTROMAGNETICS CODE
                                   MININEC
                       04-02-2024              19:18:04
                   ****************************************
 
FREQUENCY (MHZ): 299.8 
    WAVE LENGTH =  1  METERS
 
ENVIRONMENT (+1 FOR FREE SPACE, -1 FOR GROUND PLANE): -1 
 NUMBER OF MEDIA (0 FOR PERFECTLY CONDUCTING GROUND):  0 
 
NO. OF WIRES: 1 
 
WIRE NO. 1 
            COORDINATES                                 END         NO. OF
   X             Y             Z          RADIUS     CONNECTION     SEGMENTS
 0             0             .5                          0 
 0             .5            .5            .001          0             10 
 
                  **** ANTENNA GEOMETRY ****
 
WIRE NO.  1  COORDINATES                                CONNECTION PULSE
X             Y             Z             RADIUS        END1 END2  NO.
 0             .05           .5            .001           0    1    1
 0             .1            .5            .001           1    1    2
 0             .15           .5            .001           1    1    3
 0             .2            .5            .001           1    1    4
 0             .25           .5            .001           1    1    5
 0             .3            .5            .001           1    1    6
 0             .35           .5            .001           1    1    7
 0             .4            .5            .001           1    1    8
 0             .45           .5            .001           1    0    9
 
NO. OF SOURCES :  1 
PULSE NO., VOLTAGE MAGNITUDE, PHASE (DEGREES):  5 , 1 , 0 
NUMBER OF LOADS 0 
 
********************    SOURCE DATA     ********************
PULSE  5      VOLTAGE = ( 1 , 0 J)
              CURRENT = ( 1.255691E-02 ,-3.441304E-03 J)
              IMPEDANCE = ( 74.07395 , 20.30045 J)
              POWER =  6.278456E-03  WATTS
 
********************    CURRENT DATA    ********************
 
WIRE NO.  1 :
PULSE         REAL          IMAGINARY     MAGNITUDE     PHASE
 NO.          (AMPS)        (AMPS)        (AMPS)        (DEGREES)
E              0             0             0             0 
 1             4.262808E-03 -1.726665E-03  4.599228E-03 -22.05058 
 2             7.682747E-03 -2.948073E-03  8.228956E-03 -20.99313 
 3             1.031677E-02 -3.698285E-03  1.095961E-02 -19.7214 
 4             .0119852     -3.907771E-03  1.260617E-02 -18.05855 
 5             1.255691E-02 -3.441304E-03  1.301993E-02 -15.32598 
 6             .0119852     -3.907771E-03  1.260617E-02 -18.05854 
 7             1.031677E-02 -3.698285E-03  1.095961E-02 -19.7214 
 8             7.68275E-03  -2.948074E-03  8.22896E-03  -20.99313 
 9             4.262811E-03 -1.726666E-03  4.599231E-03 -22.05057 
E              0             0             0             0 
