                   ****************************************
                     MINI-NUMERICAL ELECTROMAGNETICS CODE
                                   MININEC
                       04-02-2024              19:22:39
                   ****************************************
 
FREQUENCY (MHZ): 299.8 
    WAVE LENGTH =  1  METERS
 
ENVIRONMENT (+1 FOR FREE SPACE, -1 FOR GROUND PLANE): -1 
 NUMBER OF MEDIA (0 FOR PERFECTLY CONDUCTING GROUND):  0 
 
NO. OF WIRES: 1 
 
WIRE NO. 1 
            COORDINATES                                 END         NO. OF
   X             Y             Z          RADIUS     CONNECTION     SEGMENTS
 0             0             .5                          0 
 0             .5            .5            .001          0             20 
 
                  **** ANTENNA GEOMETRY ****
 
WIRE NO.  1  COORDINATES                                CONNECTION PULSE
X             Y             Z             RADIUS        END1 END2  NO.
 0             .025          .5            .001           0    1    1
 0             .05           .5            .001           1    1    2
 0             7.500001E-02  .5            .001           1    1    3
 0             .1            .5            .001           1    1    4
 0             .125          .5            .001           1    1    5
 0             .15           .5            .001           1    1    6
 0             .175          .5            .001           1    1    7
 0             .2            .5            .001           1    1    8
 0             .225          .5            .001           1    1    9
 0             .25           .5            .001           1    1   10
 0             .275          .5            .001           1    1   11
 0             .3            .5            .001           1    1   12
 0             .325          .5            .001           1    1   13
 0             .35           .5            .001           1    1   14
 0             .375          .5            .001           1    1   15
 0             .4            .5            .001           1    1   16
 0             .425          .5            .001           1    1   17
 0             .45           .5            .001           1    1   18
 0             .475          .5            .001           1    0   19
 
NO. OF SOURCES :  1 
PULSE NO., VOLTAGE MAGNITUDE, PHASE (DEGREES):  10 , 1 , 0 
NUMBER OF LOADS 0 
 
********************    SOURCE DATA     ********************
PULSE  10     VOLTAGE = ( 1 , 0 J)
              CURRENT = ( 1.216673E-02 ,-3.511293E-03 J)
              IMPEDANCE = ( 75.87206 , 21.89651 J)
              POWER =  6.083367E-03  WATTS
 
********************    CURRENT DATA    ********************
 
WIRE NO.  1 :
PULSE         REAL          IMAGINARY     MAGNITUDE     PHASE
 NO.          (AMPS)        (AMPS)        (AMPS)        (DEGREES)
E              0             0             0             0 
 1             2.288789E-03 -9.977478E-04  2.496808E-03 -23.55375 
 2             4.192927E-03 -.0017859      4.55742E-03  -23.07069 
 3             5.925096E-03 -2.461574E-03  6.416082E-03 -22.56039 
 4             7.485838E-03 -3.025852E-03  8.074252E-03 -22.00906 
 5             .008857      -3.471616E-03  9.513073E-03 -21.40334 
 6             1.001636E-02 -3.790011E-03  1.070942E-02 -20.72574 
 7             1.094271E-02 -3.972165E-03  1.164135E-02 -19.95072 
 8             1.161806E-02 -4.008637E-03  1.229017E-02 -19.03623 
 9             1.202885E-02 -3.885005E-03  1.264067E-02 -17.8991 
 10            1.216673E-02 -3.511293E-03  1.266328E-02 -16.09802 
 11            1.202886E-02 -3.885009E-03  1.264068E-02 -17.8991 
 12            1.161807E-02 -4.008643E-03  1.229019E-02 -19.03623 
 13            1.094274E-02 -3.972174E-03  1.164138E-02 -19.95071 
 14            .0100164     -3.790021E-03  1.070946E-02 -20.72573 
 15            8.85703E-03  -3.471626E-03  9.513104E-03 -21.40333 
 16            7.485869E-03 -3.025862E-03  8.074284E-03 -22.00904 
 17            5.925122E-03 -2.461582E-03  6.416109E-03 -22.56036 
 18            4.192945E-03 -1.785906E-03  4.557438E-03 -23.07067 
 19            2.288798E-03 -9.977506E-04  2.496819E-03 -23.55372 
E              0             0             0             0 
