                   ****************************************
                     MINI-NUMERICAL ELECTROMAGNETICS CODE
                                   MININEC
                       2024-04-02              19:40:21
                   ****************************************
 
FREQUENCY (MHZ): 299.8 
    WAVE LENGTH =  1  METERS
 
ENVIRONMENT (+1 FOR FREE SPACE, -1 FOR GROUND PLANE): -1 
 NUMBER OF MEDIA (0 FOR PERFECTLY CONDUCTING GROUND):  0 
 
NO. OF WIRES: 1 
 
WIRE NO. 1 
            COORDINATES                                 END         NO. OF
   X             Y             Z          RADIUS     CONNECTION     SEGMENTS
 0             0             .5                          0 
 0             .5            .5            .001          0             50 
 
                  **** ANTENNA GEOMETRY ****
 
WIRE NO.  1  COORDINATES                                CONNECTION PULSE
X             Y             Z             RADIUS        END1 END2  NO.
 0             .01           .5            .001           0    1    1
 0             .02           .5            .001           1    1    2
 0             .03           .5            .001           1    1    3
 0             .04           .5            .001           1    1    4
 0             .05           .5            .001           1    1    5
 0             .06           .5            .001           1    1    6
 0             .07           .5            .001           1    1    7
 0             .08           .5            .001           1    1    8
 0             .09           .5            .001           1    1    9
 0             .1            .5            .001           1    1   10
 0             .11           .5            .001           1    1   11
 0             .12           .5            .001           1    1   12
 0             .13           .5            .001           1    1   13
 0             .14           .5            .001           1    1   14
 0             .15           .5            .001           1    1   15
 0             .16           .5            .001           1    1   16
 0             .17           .5            .001           1    1   17
 0             .18           .5            .001           1    1   18
 0             .19           .5            .001           1    1   19
 0             .2            .5            .001           1    1   20
 0             .21           .5            .001           1    1   21
 0             .22           .5            .001           1    1   22
 0             .23           .5            .001           1    1   23
 0             .24           .5            .001           1    1   24
 0             .25           .5            .001           1    1   25
 0             .26           .5            .001           1    1   26
 0             .27           .5            .001           1    1   27
 0             .28           .5            .001           1    1   28
 0             .29           .5            .001           1    1   29
 0             .3            .5            .001           1    1   30
 0             .31           .5            .001           1    1   31
 0             .32           .5            .001           1    1   32
 0             .33           .5            .001           1    1   33
 0             .34           .5            .001           1    1   34
 0             .35           .5            .001           1    1   35
 0             .36           .5            .001           1    1   36
 0             .37           .5            .001           1    1   37
 0             .38           .5            .001           1    1   38
 0             .39           .5            .001           1    1   39
 0             .4            .5            .001           1    1   40
 0             .41           .5            .001           1    1   41
 0             .42           .5            .001           1    1   42
 0             .43           .5            .001           1    1   43
 0             .44           .5            .001           1    1   44
 0             .45           .5            .001           1    1   45
 0             .46           .5            .001           1    1   46
 0             .47           .5            .001           1    1   47
 0             .48           .5            .001           1    1   48
 0             .49           .5            .001           1    0   49
 
NO. OF SOURCES :  1 
PULSE NO., VOLTAGE MAGNITUDE, PHASE (DEGREES):  25 , 1 , 0 
NUMBER OF LOADS 0 
 
********************    SOURCE DATA     ********************
PULSE  25     VOLTAGE = ( 1 , 0 J)
              CURRENT = ( 1.175020E-02 ,-3.749431E-03 J)
              IMPEDANCE = ( 77.24018 , 24.64695 J)
              POWER =  5.875102E-03  WATTS
 
********************    CURRENT DATA    ********************
 
WIRE NO.  1 :
PULSE         REAL          IMAGINARY     MAGNITUDE     PHASE
 NO.          (AMPS)        (AMPS)        (AMPS)        (DEGREES)
E              0             0             0             0 
 1             1.051671E-03 -5.061931E-04  1.167152E-03 -25.70256 
 2             1.877563E-03 -8.960707E-04  2.080429E-03 -25.5129 
 3             2.651912E-03 -1.254941E-03  2.933857E-03 -25.32451 
 4             3.390777E-03 -1.590755E-03  3.745380E-03 -25.13323 
 5             4.101008E-03 -1.906920E-03  4.522677E-03 -24.93786 
 6             4.785093E-03 -2.204701E-03  5.268569E-03 -24.73759 
 7             5.443657E-03 -2.484453E-03  5.983804E-03 -24.53168 
 8             6.076378E-03 -2.746068E-03  6.668078E-03 -24.31941 
 9             6.682419E-03 -2.989196E-03  7.320520E-03 -24.10004 
 10            7.260651E-03 -3.213347E-03  7.939940E-03 -23.87275 
 11            7.809785E-03 -3.417963E-03  8.524976E-03 -23.63666 
 12            8.328458E-03 -3.602448E-03  9.074186E-03 -23.39074 
 13            8.815282E-03 -3.766197E-03  9.586106E-03 -23.13387 
 14            9.268886E-03 -3.908605E-03  1.005930E-02 -22.86471 
 15            9.687944E-03 -4.029073E-03  1.049236E-02 -22.58171 
 16            1.007119E-02 -4.127011E-03  1.088399E-02 -22.28302 
 17            1.041746E-02 -4.201819E-03  1.123293E-02 -21.96638 
 18            1.072566E-02 -4.252872E-03  1.153805E-02 -21.62902 
 19            1.099480E-02 -4.279473E-03  1.179829E-02 -21.26733 
 20            1.122404E-02 -4.280771E-03  1.201267E-02 -20.8765 
 21            1.141263E-02 -4.255595E-03  1.218024E-02 -20.44971 
 22            1.155995E-02 -4.202086E-03  1.230000E-02 -19.97639 
 23            1.166553E-02 -4.116658E-03  1.237059E-02 -19.43746 
 24            1.172902E-02 -3.992039E-03  1.238976E-02 -18.7963 
 25            1.175020E-02 -3.749431E-03  1.233392E-02 -17.69762 
 26            1.172902E-02 -3.992039E-03  1.238976E-02 -18.7963 
 27            1.166553E-02 -4.116658E-03  1.237059E-02 -19.43746 
 28            1.155995E-02 -4.202086E-03  1.230000E-02 -19.97639 
 29            1.141263E-02 -4.255595E-03  1.218024E-02 -20.44971 
 30            1.122404E-02 -4.280771E-03  1.201267E-02 -20.8765 
 31            1.099480E-02 -4.279473E-03  1.179829E-02 -21.26733 
 32            1.072566E-02 -4.252872E-03  1.153805E-02 -21.62902 
 33            1.041746E-02 -4.201819E-03  1.123293E-02 -21.96638 
 34            1.007119E-02 -4.127011E-03  1.088399E-02 -22.28302 
 35            9.687944E-03 -4.029073E-03  1.049236E-02 -22.58171 
 36            9.268886E-03 -3.908605E-03  1.005930E-02 -22.86471 
 37            8.815282E-03 -3.766197E-03  9.586106E-03 -23.13387 
 38            8.328458E-03 -3.602448E-03  9.074186E-03 -23.39074 
 39            7.809785E-03 -3.417963E-03  8.524976E-03 -23.63666 
 40            7.260651E-03 -3.213347E-03  7.939940E-03 -23.87275 
 41            6.682419E-03 -2.989196E-03  7.320520E-03 -24.10004 
 42            6.076378E-03 -2.746068E-03  6.668078E-03 -24.31941 
 43            5.443657E-03 -2.484453E-03  5.983804E-03 -24.53168 
 44            4.785093E-03 -2.204701E-03  5.268569E-03 -24.73759 
 45            4.101008E-03 -1.906920E-03  4.522677E-03 -24.93786 
 46            3.390777E-03 -1.590755E-03  3.745380E-03 -25.13323 
 47            2.651912E-03 -1.254941E-03  2.933857E-03 -25.32451 
 48            1.877563E-03 -8.960707E-04  2.080429E-03 -25.5129 
 49            1.051671E-03 -5.061931E-04  1.167152E-03 -25.70256 
E              0             0             0             0 
