                   ****************************************
                     MINI-NUMERICAL ELECTROMAGNETICS CODE
                                   MININEC
                       2024-04-02              19:15:40
                   ****************************************
 
FREQUENCY (MHZ): 299.8 
    WAVE LENGTH =  1  METERS
 
ENVIRONMENT (+1 FOR FREE SPACE, -1 FOR GROUND PLANE): -1 
 NUMBER OF MEDIA (0 FOR PERFECTLY CONDUCTING GROUND):  0 
 
NO. OF WIRES: 1 
 
WIRE NO. 1 
            COORDINATES                                 END         NO. OF
   X             Y             Z          RADIUS     CONNECTION     SEGMENTS
 0             0             .5                          0 
 0             .5            .5            .001          0             10 
 
                  **** ANTENNA GEOMETRY ****
 
WIRE NO.  1  COORDINATES                                CONNECTION PULSE
X             Y             Z             RADIUS        END1 END2  NO.
 0             .05           .5            .001           0    1    1
 0             .1            .5            .001           1    1    2
 0             .15           .5            .001           1    1    3
 0             .2            .5            .001           1    1    4
 0             .25           .5            .001           1    1    5
 0             .3            .5            .001           1    1    6
 0             .35           .5            .001           1    1    7
 0             .4            .5            .001           1    1    8
 0             .45           .5            .001           1    0    9
 
NO. OF SOURCES :  1 
PULSE NO., VOLTAGE MAGNITUDE, PHASE (DEGREES):  5 , 1 , 0 
NUMBER OF LOADS 0 
 
********************    SOURCE DATA     ********************
PULSE  5      VOLTAGE = ( 1 , 0 J)
              CURRENT = ( 1.255721E-02 ,-3.440910E-03 J)
              IMPEDANCE = ( 74.0736 , 20.29754 J)
              POWER =  6.278607E-03  WATTS
 
********************    CURRENT DATA    ********************
 
WIRE NO.  1 :
PULSE         REAL          IMAGINARY     MAGNITUDE     PHASE
 NO.          (AMPS)        (AMPS)        (AMPS)        (DEGREES)
E              0             0             0             0 
 1             4.262916E-03 -1.726533E-03  4.599279E-03 -22.04855 
 2             7.682936E-03 -2.947834E-03  8.229048E-03 -20.9911 
 3             1.031701E-02 -3.697962E-03  1.095973E-02 -19.71937 
 4             1.198549E-02 -3.907395E-03  1.260633E-02 -18.05652 
 5             1.255721E-02 -3.440910E-03  1.302012E-02 -15.32396 
 6             1.198549E-02 -3.907395E-03  1.260633E-02 -18.05652 
 7             1.031701E-02 -3.697962E-03  1.095973E-02 -19.71937 
 8             7.682936E-03 -2.947834E-03  8.229048E-03 -20.9911 
 9             4.262916E-03 -1.726533E-03  4.599279E-03 -22.04855 
E              0             0             0             0 
