                   ****************************************
                     MINI-NUMERICAL ELECTROMAGNETICS CODE
                                   MININEC
                       04-02-2024              19:27:29
                   ****************************************
 
FREQUENCY (MHZ): 299.8 
    WAVE LENGTH =  1  METERS
 
ENVIRONMENT (+1 FOR FREE SPACE, -1 FOR GROUND PLANE): -1 
 NUMBER OF MEDIA (0 FOR PERFECTLY CONDUCTING GROUND):  0 
 
NO. OF WIRES: 1 
 
WIRE NO. 1 
            COORDINATES                                 END         NO. OF
   X             Y             Z          RADIUS     CONNECTION     SEGMENTS
 0             0             .5                          0 
 0             .5            .5            .001          0             30 
 
                  **** ANTENNA GEOMETRY ****
 
WIRE NO.  1  COORDINATES                                CONNECTION PULSE
X             Y             Z             RADIUS        END1 END2  NO.
 0             1.666667E-02  .5            .001           0    1    1
 0             3.333334E-02  .5            .001           1    1    2
 0             .05           .5            .001           1    1    3
 0             6.666667E-02  .5            .001           1    1    4
 0             8.333334E-02  .5            .001           1    1    5
 0             .1            .5            .001           1    1    6
 0             .1166667      .5            .001           1    1    7
 0             .1333333      .5            .001           1    1    8
 0             .15           .5            .001           1    1    9
 0             .1666667      .5            .001           1    1   10
 0             .1833333      .5            .001           1    1   11
 0             .2            .5            .001           1    1   12
 0             .2166667      .5            .001           1    1   13
 0             .2333333      .5            .001           1    1   14
 0             .25           .5            .001           1    1   15
 0             .2666667      .5            .001           1    1   16
 0             .2833333      .5            .001           1    1   17
 0             .3            .5            .001           1    1   18
 0             .3166667      .5            .001           1    1   19
 0             .3333334      .5            .001           1    1   20
 0             .35           .5            .001           1    1   21
 0             .3666667      .5            .001           1    1   22
 0             .3833333      .5            .001           1    1   23
 0             .4            .5            .001           1    1   24
 0             .4166667      .5            .001           1    1   25
 0             .4333334      .5            .001           1    1   26
 0             .45           .5            .001           1    1   27
 0             .4666667      .5            .001           1    1   28
 0             .4833333      .5            .001           1    0   29
 
NO. OF SOURCES :  1 
PULSE NO., VOLTAGE MAGNITUDE, PHASE (DEGREES):  15 , 1 , 0 
NUMBER OF LOADS 0 
 
********************    SOURCE DATA     ********************
PULSE  15     VOLTAGE = ( 1 , 0 J)
              CURRENT = ( 1.196126E-02 ,-3.624516E-03 J)
              IMPEDANCE = ( 76.57223 , 23.20301 J)
              POWER =  5.980631E-03  WATTS
 
********************    CURRENT DATA    ********************
 
WIRE NO.  1 :
PULSE         REAL          IMAGINARY     MAGNITUDE     PHASE
 NO.          (AMPS)        (AMPS)        (AMPS)        (DEGREES)
E              0             0             0             0 
 1             1.607516E-03 -7.358879E-04  1.767948E-03 -24.59733 
 2             2.924075E-03 -1.31909E-03   3.207836E-03 -24.28079 
 3             4.148796E-03 -1.843464E-03  4.539919E-03 -23.95735 
 4             5.298723E-03 -2.317235E-03  5.783255E-03 -23.6207 
 5             6.375624E-03 -2.741466E-03  6.940044E-03 -23.26731 
 6             7.375751E-03 -3.114672E-03  8.006426E-03 -22.89362 
 7             8.29331E-03  -3.434456E-03  8.976327E-03 -22.4956 
 8             9.12184E-03  -3.698131E-03  9.842973E-03 -22.06837 
 9             9.85488E-03  -3.902979E-03  1.059962E-02 -21.60581 
 10            1.048637E-02 -4.046316E-03  1.123996E-02 -21.09981 
 11            .0110109     -4.125395E-03  1.175835E-02 -20.5392 
 12            1.142384E-02 -4.136999E-03  1.214985E-02 -19.90722 
 13            .0117215     -4.076226E-03  1.241004E-02 -19.17545 
 14            1.190119E-02 -3.93286E-03   1.253418E-02 -18.28663 
 15            1.196126E-02 -3.624516E-03  1.249836E-02 -16.85792 
 16            1.190118E-02 -3.932859E-03  1.253417E-02 -18.28663 
 17            .0117215     -4.076226E-03  1.241004E-02 -19.17545 
 18            1.142384E-02 -4.136999E-03  1.214985E-02 -19.90722 
 19            .0110109     -4.125393E-03  1.175835E-02 -20.53919 
 20            1.048638E-02 -4.046315E-03  1.123996E-02 -21.09981 
 21            9.85489E-03  -3.902981E-03  1.059963E-02 -21.6058 
 22            9.121859E-03 -3.698138E-03  9.842994E-03 -22.06837 
 23            8.293341E-03 -3.434465E-03  8.976361E-03 -22.49558 
 24            7.375785E-03 -3.114682E-03  8.006463E-03 -22.8936 
 25            6.375658E-03 -2.741477E-03  6.940079E-03 -23.26728 
 26            5.298755E-03 -2.317245E-03  5.783288E-03 -23.62066 
 27            4.148823E-03 -1.843471E-03  4.539946E-03 -23.9573 
 28            2.924093E-03 -1.319096E-03  3.207855E-03 -24.28074 
 29            1.607527E-03 -7.358908E-04  1.767958E-03 -24.59728 
E              0             0             0             0 
