                   ****************************************
                     MINI-NUMERICAL ELECTROMAGNETICS CODE
                                   MININEC
                   ****************************************

FREQUENCY (MHZ): 299.8
    WAVE LENGTH =  1  METERS

ENVIRONMENT (+1 FOR FREE SPACE, -1 FOR GROUND PLANE): -1
 NUMBER OF MEDIA (0 FOR PERFECTLY CONDUCTING GROUND):  0

NO. OF WIRES: 1

WIRE NO. 1
            COORDINATES                                 END         NO. OF
   X             Y             Z          RADIUS     CONNECTION     SEGMENTS
 0             0             .5                         0
 0             .5            .5            .001         0             30

                  **** ANTENNA GEOMETRY ****

WIRE NO.  1  COORDINATES                                CONNECTION PULSE
X             Y             Z             RADIUS        END1 END2  NO.
 0             .016666       .5            .001          0    1   1
 0             .033333       .5            .001          1    1   2
 0             .05           .5            .001          1    1   3
 0             .066666       .5            .001          1    1   4
 0             .083333       .5            .001          1    1   5
 0             .1            .5            .001          1    1   6
 0             .116667       .5            .001          1    1   7
 0             .133333       .5            .001          1    1   8
 0             .15           .5            .001          1    1   9
 0             .166667       .5            .001          1    1  10
 0             .183333       .5            .001          1    1  11
 0             .2            .5            .001          1    1  12
 0             .216667       .5            .001          1    1  13
 0             .233333       .5            .001          1    1  14
 0             .25           .5            .001          1    1  15
 0             .266667       .5            .001          1    1  16
 0             .283333       .5            .001          1    1  17
 0             .3            .5            .001          1    1  18
 0             .316667       .5            .001          1    1  19
 0             .333333       .5            .001          1    1  20
 0             .35           .5            .001          1    1  21
 0             .366667       .5            .001          1    1  22
 0             .383333       .5            .001          1    1  23
 0             .4            .5            .001          1    1  24
 0             .416667       .5            .001          1    1  25
 0             .433333       .5            .001          1    1  26
 0             .45           .5            .001          1    1  27
 0             .466667       .5            .001          1    1  28
 0             .483333       .5            .001          1    0  29

NO. OF SOURCES :  1
PULSE NO., VOLTAGE MAGNITUDE, PHASE (DEGREES): 15 , 1 , 0
NUMBER OF LOADS 0

********************    SOURCE DATA     ********************
PULSE 15      VOLTAGE = ( 1 , 0 J)
              CURRENT = ( 1.196488E-02 , -3.620488E-03 J)
              IMPEDANCE = ( 76.56726 ,  23.16872 J)
              POWER =  5.982439E-03  WATTS

********************    CURRENT DATA    ********************

WIRE NO.  1 :
PULSE         REAL          IMAGINARY     MAGNITUDE     PHASE
 NO.          (AMPS)        (AMPS)        (AMPS)        (DEGREES)
E              0             0             0             0
 1             1.608027E-03 -7.353547E-04  1.768190E-03 -24.57473 
 2             2.924999E-03 -1.318119E-03  3.208279E-03 -24.25819 
 3             4.150101E-03 -1.842083E-03  4.540552E-03 -23.93474 
 4             5.300379E-03 -2.315469E-03  5.784065E-03 -23.5981  
 5             6.377605E-03 -2.739337E-03  6.941024E-03 -23.2447  
 6             7.378031E-03 -3.112205E-03  8.007569E-03 -22.87101 
 7             8.295861E-03 -3.431678E-03  8.977624E-03 -22.47299 
 8             9.124631E-03 -3.695071E-03  9.844412E-03 -22.04576 
 9             9.857884E-03 -3.899668E-03  1.060119E-02 -21.58319 
 10            1.048956E-02 -4.042789E-03  1.124166E-02 -21.0772  
 11            1.101424E-02 -4.121689E-03  1.176017E-02 -20.51659 
 12            1.142730E-02 -4.133154E-03  1.215179E-02 -19.88462 
 13            1.172504E-02 -4.072280E-03  1.241209E-02 -19.15287 
 14            1.190478E-02 -3.928851E-03  1.253634E-02 -18.26408 
 15            1.196488E-02 -3.620488E-03  1.250065E-02 -16.83545 
 16            1.190478E-02 -3.928851E-03  1.253634E-02 -18.26408 
 17            1.172504E-02 -4.072280E-03  1.241209E-02 -19.15287 
 18            1.142730E-02 -4.133154E-03  1.215179E-02 -19.88462 
 19            1.101424E-02 -4.121689E-03  1.176017E-02 -20.51659 
 20            1.048956E-02 -4.042789E-03  1.124166E-02 -21.0772  
 21            9.857884E-03 -3.899668E-03  1.060119E-02 -21.58319 
 22            9.124631E-03 -3.695071E-03  9.844412E-03 -22.04576 
 23            8.295861E-03 -3.431678E-03  8.977624E-03 -22.47299 
 24            7.378031E-03 -3.112205E-03  8.007569E-03 -22.87101 
 25            6.377605E-03 -2.739337E-03  6.941024E-03 -23.2447  
 26            5.300379E-03 -2.315469E-03  5.784065E-03 -23.5981  
 27            4.150101E-03 -1.842083E-03  4.540552E-03 -23.93474 
 28            2.924999E-03 -1.318119E-03  3.208279E-03 -24.25819 
 29            1.608027E-03 -7.353547E-04  1.768190E-03 -24.57473 
E              0             0             0             0

********************     FAR FIELD      ********************

ZENITH ANGLE : INITIAL,INCREMENT,NUMBER: 0 , 10 , 1
AZIMUTH ANGLE: INITIAL,INCREMENT,NUMBER: 0 , 10 , 1

********************    PATTERN DATA    ********************
ZENITH        AZIMUTH       VERTICAL      HORIZONTAL    TOTAL
 ANGLE         ANGLE        PATTERN (DB)  PATTERN (DB)  PATTERN (DB)
 0             0            -999          -999          -999     
