                   ****************************************
                     MINI-NUMERICAL ELECTROMAGNETICS CODE
                                   MININEC
                   ****************************************

FREQUENCY (MHZ): 299.8
    WAVE LENGTH =  1  METERS

ENVIRONMENT (+1 FOR FREE SPACE, -1 FOR GROUND PLANE): -1
 NUMBER OF MEDIA (0 FOR PERFECTLY CONDUCTING GROUND):  0

NO. OF GEO-OBJECTS: 1

WIRE NO. 1
            COORDINATES                                 END         NO. OF
   X             Y             Z          RADIUS     CONNECTION     SEGMENTS
 0             0             .5                         0
 0             .5            .5            .001         0             20

                  **** ANTENNA GEOMETRY ****

WIRE NO.  1 COORDINATES                                 CONNECTION PULSE
X             Y             Z             RADIUS        END1 END2  NO.
 0             .025          .5            .001          0    1   1
 0             .05           .5            .001          1    1   2
 0             .075          .5            .001          1    1   3
 0             .1            .5            .001          1    1   4
 0             .125          .5            .001          1    1   5
 0             .15           .5            .001          1    1   6
 0             .175          .5            .001          1    1   7
 0             .2            .5            .001          1    1   8
 0             .225          .5            .001          1    1   9
 0             .25           .5            .001          1    1  10
 0             .275          .5            .001          1    1  11
 0             .3            .5            .001          1    1  12
 0             .325          .5            .001          1    1  13
 0             .35           .5            .001          1    1  14
 0             .375          .5            .001          1    1  15
 0             .4            .5            .001          1    1  16
 0             .425          .5            .001          1    1  17
 0             .45           .5            .001          1    1  18
 0             .475          .5            .001          1    0  19

NO. OF SOURCES :  1
PULSE NO., VOLTAGE MAGNITUDE, PHASE (DEGREES): 10 , 1 , 0
NUMBER OF LOADS 0

********************    SOURCE DATA     ********************
PULSE 10      VOLTAGE = ( 1 , 0 J)
              CURRENT = ( 1.216660E-02 , -3.511373E-03 J)
              IMPEDANCE = ( 75.87249 ,  21.89738 J)
              POWER =  6.083299E-03  WATTS

********************    CURRENT DATA    ********************

WIRE NO.  1 :
PULSE         REAL          IMAGINARY     MAGNITUDE     PHASE
 NO.          (AMPS)        (AMPS)        (AMPS)        (DEGREES)
E              0             0             0             0
 1             2.288770E-03 -9.977645E-04  2.496798E-03 -23.55427 
 2             4.192893E-03 -1.785931E-03  4.557401E-03 -23.07121 
 3             5.925048E-03 -2.461618E-03  6.416055E-03 -22.56091 
 4             7.485776E-03 -3.025907E-03  8.074216E-03 -22.00958 
 5             8.856924E-03 -3.471680E-03  9.513026E-03 -21.40387 
 6             1.001628E-02 -3.790083E-03  1.070937E-02 -20.72627 
 7             1.094261E-02 -3.972242E-03  1.164128E-02 -19.95125 
 8             1.161794E-02 -4.008717E-03  1.229009E-02 -19.03676 
 9             1.202872E-02 -3.885086E-03  1.264057E-02 -17.89963 
 10            1.216660E-02 -3.511373E-03  1.266317E-02 -16.09854 
 11            1.202872E-02 -3.885086E-03  1.264057E-02 -17.89963 
 12            1.161794E-02 -4.008717E-03  1.229009E-02 -19.03676 
 13            1.094261E-02 -3.972242E-03  1.164128E-02 -19.95125 
 14            1.001628E-02 -3.790083E-03  1.070937E-02 -20.72627 
 15            8.856924E-03 -3.471680E-03  9.513026E-03 -21.40387 
 16            7.485776E-03 -3.025907E-03  8.074216E-03 -22.00958 
 17            5.925048E-03 -2.461618E-03  6.416055E-03 -22.56091 
 18            4.192893E-03 -1.785931E-03  4.557401E-03 -23.07121 
 19            2.288770E-03 -9.977645E-04  2.496798E-03 -23.55427 
E              0             0             0             0

********************     FAR FIELD      ********************

ZENITH ANGLE : INITIAL,INCREMENT,NUMBER: 0 , 10 , 1
AZIMUTH ANGLE: INITIAL,INCREMENT,NUMBER: 0 , 10 , 1

********************    PATTERN DATA    ********************
ZENITH        AZIMUTH       VERTICAL      HORIZONTAL    TOTAL
 ANGLE         ANGLE        PATTERN (DB)  PATTERN (DB)  PATTERN (DB)
 0             0            -999          -999          -999     
