                   ****************************************
                     MINI-NUMERICAL ELECTROMAGNETICS CODE
                                   MININEC
                   ****************************************

FREQUENCY (MHZ): 600
    WAVE LENGTH =  .499667  METERS

ENVIRONMENT (+1 FOR FREE SPACE, -1 FOR GROUND PLANE): +1

NO. OF GEO-OBJECTS: 2

WIRE NO. 1
            COORDINATES                                 END         NO. OF
   X             Y             Z          RADIUS     CONNECTION     SEGMENTS
 0             .110864       0                          0
 0             0             0             .003175      0             10

WIRE NO. 2
            COORDINATES                                 END         NO. OF
   X             Y             Z          RADIUS     CONNECTION     SEGMENTS
 0            -.110864       0                          0
 0             0             0             .003175     -1             10

                  **** ANTENNA GEOMETRY ****

WIRE NO.  1 COORDINATES                                 CONNECTION PULSE
X             Y             Z             RADIUS        END1 END2  NO.
 0             .099777       0             .003175       0    1   1
 0             .08869        0             .003175       1    1   2
 0             .077604       0             .003175       1    1   3
 0             .066518       0             .003175       1    1   4
 0             .055431       0             .003175       1    1   5
 0             .044345       0             .003175       1    1   6
 0             .033259       0             .003175       1    1   7
 0             .022172       0             .003175       1    1   8
 0             .011086       0             .003175       1    0   9

WIRE NO.  2 COORDINATES                                 CONNECTION PULSE
X             Y             Z             RADIUS        END1 END2  NO.
 0            -.099777       0             .003175       0    2  10
 0            -.08869        0             .003175       2    2  11
 0            -.077604       0             .003175       2    2  12
 0            -.066518       0             .003175       2    2  13
 0            -.055431       0             .003175       2    2  14
 0            -.044345       0             .003175       2    2  15
 0            -.033259       0             .003175       2    2  16
 0            -.022172       0             .003175       2    2  17
 0            -.011086       0             .003175       2    2  18
 0             0             0             .003175       2   -1  19

NO. OF SOURCES :  1
PULSE NO., VOLTAGE MAGNITUDE, PHASE (DEGREES): 19 , 1 , 0
NUMBER OF LOADS 20
PULSE NO.,RESISTANCE,REACTANCE:  1 ,  .003503  ,  .003503 
PULSE NO.,RESISTANCE,REACTANCE:  2 ,  .003503  ,  .003503 
PULSE NO.,RESISTANCE,REACTANCE:  3 ,  .003503  ,  .003503 
PULSE NO.,RESISTANCE,REACTANCE:  4 ,  .003503  ,  .003503 
PULSE NO.,RESISTANCE,REACTANCE:  5 ,  .003503  ,  .003503 
PULSE NO.,RESISTANCE,REACTANCE:  6 ,  .003503  ,  .003503 
PULSE NO.,RESISTANCE,REACTANCE:  7 ,  .003503  ,  .003503 
PULSE NO.,RESISTANCE,REACTANCE:  8 ,  .003503  ,  .003503 
PULSE NO.,RESISTANCE,REACTANCE:  9 ,  .003503  ,  .003503 
PULSE NO.,RESISTANCE,REACTANCE: 19 ,  .001751  ,  .001751 
PULSE NO.,RESISTANCE,REACTANCE:  1 ,  0        ,  2.330108
PULSE NO.,RESISTANCE,REACTANCE:  2 ,  0        ,  2.330108
PULSE NO.,RESISTANCE,REACTANCE:  3 ,  0        ,  2.330108
PULSE NO.,RESISTANCE,REACTANCE:  4 ,  0        ,  2.330108
PULSE NO.,RESISTANCE,REACTANCE:  5 ,  0        ,  2.330108
PULSE NO.,RESISTANCE,REACTANCE:  6 ,  0        ,  2.330108
PULSE NO.,RESISTANCE,REACTANCE:  7 ,  0        ,  2.330108
PULSE NO.,RESISTANCE,REACTANCE:  8 ,  0        ,  2.330108
PULSE NO.,RESISTANCE,REACTANCE:  9 ,  0        ,  2.330108
PULSE NO.,RESISTANCE,REACTANCE: 19 ,  0        ,  1.165054

********************    SOURCE DATA     ********************
PULSE 19      VOLTAGE = ( 1 , 0 J)
              CURRENT = ( 1.508666E-02 ,  3.114171E-03 J)
              IMPEDANCE = ( 63.5749  , -13.12306 J)
              POWER =  7.543328E-03  WATTS

********************    CURRENT DATA    ********************

WIRE NO.  1 :
PULSE         REAL          IMAGINARY     MAGNITUDE     PHASE
 NO.          (AMPS)        (AMPS)        (AMPS)        (DEGREES)
E              0             0             0             0
 1            -3.638250E-03  1.186764E-05  3.638269E-03  179.8131 
 2            -6.010193E-03 -5.382815E-05  6.010434E-03 -179.4869 
 3            -8.122686E-03 -1.729932E-04  8.124528E-03 -178.7799 
 4            -9.971733E-03 -3.441510E-04  9.977670E-03 -178.0234 
 5            -1.155927E-02 -5.662525E-04  1.157313E-02 -177.1955 
 6            -1.287216E-02 -8.395342E-04  1.289951E-02 -176.2684 
 7            -1.389491E-02 -1.166545E-03  1.394379E-02 -175.201  
 8            -1.461308E-02 -1.558094E-03  1.469591E-02 -173.9139 
 9            -1.501461E-02 -2.016339E-03  1.514940E-02 -172.3514 
J             -1.508666E-02 -3.114171E-03  1.540471E-02 -168.3369 
WIRE NO.  2 :
PULSE         REAL          IMAGINARY     MAGNITUDE     PHASE
 NO.          (AMPS)        (AMPS)        (AMPS)        (DEGREES)
E              0             0             0             0
 10            3.545850E-03 -9.648551E-06  3.545864E-03 -.155906  
 11            5.787241E-03  5.741354E-05  5.787526E-03  .568396  
 12            7.824320E-03  1.760876E-04  7.826301E-03  1.289233 
 13            9.618853E-03  3.459765E-04  9.625073E-03  2.05996  
 14            1.117941E-02  5.663644E-04  1.119375E-02  2.900204 
 15            1.249506E-02  8.380225E-04  1.252313E-02  3.836985 
 16            1.355298E-02  1.163852E-03  1.360286E-02  4.908192 
 17            1.434135E-02  1.557582E-03  1.442568E-02  6.198471 
 18            1.485096E-02  2.007313E-03  1.498600E-02  7.697671 
J              1.508666E-02  3.114171E-03  1.540471E-02  11.66312 

********************     FAR FIELD      ********************

ZENITH ANGLE : INITIAL,INCREMENT,NUMBER: 0 , 10 , 10
AZIMUTH ANGLE: INITIAL,INCREMENT,NUMBER: 0 , 10 , 37

********************    PATTERN DATA    ********************
ZENITH        AZIMUTH       VERTICAL      HORIZONTAL    TOTAL
 ANGLE         ANGLE        PATTERN (DB)  PATTERN (DB)  PATTERN (DB)
 0             0            -999           2.088172      2.088172
 10            0            -999           2.088172      2.088172
 20            0            -999           2.088172      2.088172
 30            0            -999           2.088172      2.088172
 40            0            -999           2.088172      2.088172
 50            0            -999           2.088172      2.088172
 60            0            -999           2.088172      2.088172
 70            0            -999           2.088172      2.088172
 80            0            -999           2.088172      2.088172
 90            0            -999           2.088172      2.088172
 0             10           -13.11842      1.955201      2.088172
 10            10           -13.25278      1.953813      2.082833
 20            10           -13.66444      1.949468      2.067093
 30            10           -14.38031      1.942705      2.042813
 40            10           -15.45419      1.934353      2.012876
 50            10           -16.98684      1.925432      1.980867
 60            10           -19.17719      1.917031      1.950657
 70            10           -22.48242      1.910172      1.925938
 80            10           -28.37453      1.905691      1.909761
 90            10           -999           1.904134      1.904134
 0             20           -7.230795      1.547888      2.088172
 10            20           -7.369498      1.542155      2.067093
 20            20           -7.794011      1.524955      2.005401
 30            20           -8.529692      1.498378      1.909761
 40            20           -9.627964      1.465639      1.790776
 50            20           -11.18663      1.430702      1.662136
 60            20           -13.40148      1.397802      1.539303
 70            20           -16.72671      1.370939      1.437723
 80            20           -22.63189      1.353386      1.3707  
 90            20           -999           1.347287      1.347287
 0             30           -3.932428      .838784       2.088172
 10            30           -4.077895      .826288       2.042813
 20            30           -4.522222      .789274       1.909761
 30            30           -5.288423      .732177       1.701277
 40            30           -6.424298      .661835       1.437723
 50            30           -8.02315       .586712       1.147087
 60            30           -10.27591      .515902       .863523 
 70            30           -13.63215      .458029       .624154 
 80            30           -19.55762      .420186       .46362  
 90            30           -999           .407031       .407031 
 0             40           -1.750478     -.226749       2.088172
 10            40           -1.904297     -.247597       2.012876
 20            40           -2.373011     -.308998       1.790776
 30            40           -3.176815     -.403698       1.437723
 40            40           -4.35912      -.52047        .981492 
 50            40           -6.007727     -.645347       .46362  
 60            40           -8.30756      -.763231      -.059076 
 70            40           -11.7024      -.859707      -.515979 
 80            40           -17.65318     -.922858      -.831619 
 90            40           -999          -.944824      -.944824 
 0             50           -.226749      -1.750478      2.088172
 10            50           -.389488      -1.780247      1.980867
 20            50           -.884219      -1.867665      1.662136
 30            50           -1.728208     -2.00255       1.147087
 40            50           -2.960268     -2.169077      .46362  
 50            50           -4.662367     -2.347446     -.342158 
 60            50           -7.012983     -2.516113     -1.196498
 70            50           -10.4496      -2.654363     -1.986853
 80            50           -16.42783     -2.744964     -2.562843
 90            50           -999          -2.776498     -2.776498
 0             60            .838784      -3.932428      2.088172
 10            60            .667643      -3.970598      1.950657
 20            60            .148414      -4.082515      1.539303
 30            60           -.733486      -4.255311      .863523 
 40            60           -2.012618     -4.46891      -.059076 
 50            60           -3.7655       -4.698062     -1.196498
 60            60           -6.164497     -4.91511      -2.484729
 70            60           -9.641039     -5.093285     -3.786946
 80            60           -15.64557     -5.210187     -4.834085
 90            60           -999          -5.250899     -5.250899
 0             70            1.547888     -7.230795      2.088172
 10            70            1.369888     -7.275824      1.925938
 20            70            .830655      -7.407744      1.437723
 30            70           -.082254      -7.61155       .624154 
 40            70           -1.399991     -7.863753     -.515979 
 50            70           -3.194646     -8.134679     -1.986853
 60            70           -5.633569     -8.391652     -3.786946
 70            70           -9.143155     -8.602872     -5.854317
 80            70           -15.1695      -8.741589     -7.850952
 90            70           -999          -8.789924     -8.789924
 0             80            1.955201     -13.11842      2.088172
 10            80            1.77272      -13.16793      1.909761
 20            80            1.220415     -13.31293      1.3707  
 30            80            .287215      -13.53702      .46362  
 40            80           -1.055829     -13.81453     -.831619 
 50            80           -2.877935     -14.11291     -2.562843
 60            80           -5.343158     -14.39618     -4.834085
 70            80           -8.87456      -14.62922     -7.850952
 80            80           -14.91533     -14.78236     -11.83804
 90            80           -999          -14.83574     -14.83574
 0             90            2.088172     -999           2.088172
 10            90            1.904134     -999           1.904134
 20            90            1.347287     -999           1.347287
 30            90            .407031      -999           .407031 
 40            90           -.944824      -999          -.944824 
 50            90           -2.776498     -999          -2.776498
 60            90           -5.250899     -999          -5.250899
 70            90           -8.789924     -999          -8.789924
 80            90           -14.83574     -999          -14.83574
 90            90           -999          -999          -999     
 0             100           1.955201     -13.11842      2.088172
 10            100           1.77272      -13.16793      1.909761
 20            100           1.220415     -13.31293      1.3707  
 30            100           .287215      -13.53702      .46362  
 40            100          -1.055829     -13.81453     -.831619 
 50            100          -2.877935     -14.11291     -2.562843
 60            100          -5.343158     -14.39618     -4.834085
 70            100          -8.87456      -14.62922     -7.850952
 80            100          -14.91533     -14.78236     -11.83804
 90            100          -999          -14.83574     -14.83574
 0             110           1.547888     -7.230795      2.088172
 10            110           1.369888     -7.275824      1.925938
 20            110           .830655      -7.407744      1.437723
 30            110          -.082254      -7.61155       .624154 
 40            110          -1.399991     -7.863753     -.515979 
 50            110          -3.194646     -8.134679     -1.986853
 60            110          -5.633569     -8.391652     -3.786946
 70            110          -9.143155     -8.602872     -5.854317
 80            110          -15.1695      -8.741589     -7.850952
 90            110          -999          -8.789924     -8.789924
 0             120           .838784      -3.932428      2.088172
 10            120           .667643      -3.970598      1.950657
 20            120           .148414      -4.082515      1.539303
 30            120          -.733486      -4.255311      .863523 
 40            120          -2.012618     -4.46891      -.059076 
 50            120          -3.7655       -4.698062     -1.196498
 60            120          -6.164497     -4.91511      -2.484729
 70            120          -9.641039     -5.093285     -3.786946
 80            120          -15.64557     -5.210187     -4.834085
 90            120          -999          -5.250899     -5.250899
 0             130          -.226749      -1.750478      2.088172
 10            130          -.389488      -1.780247      1.980867
 20            130          -.884219      -1.867665      1.662136
 30            130          -1.728208     -2.00255       1.147087
 40            130          -2.960268     -2.169077      .46362  
 50            130          -4.662367     -2.347446     -.342158 
 60            130          -7.012983     -2.516113     -1.196498
 70            130          -10.4496      -2.654363     -1.986853
 80            130          -16.42783     -2.744964     -2.562843
 90            130          -999          -2.776498     -2.776498
 0             140          -1.750478     -.226749       2.088172
 10            140          -1.904297     -.247597       2.012876
 20            140          -2.373011     -.308998       1.790776
 30            140          -3.176815     -.403698       1.437723
 40            140          -4.35912      -.52047        .981492 
 50            140          -6.007727     -.645347       .46362  
 60            140          -8.30756      -.763231      -.059076 
 70            140          -11.7024      -.859707      -.515979 
 80            140          -17.65318     -.922858      -.831619 
 90            140          -999          -.944824      -.944824 
 0             150          -3.932428      .838784       2.088172
 10            150          -4.077895      .826288       2.042813
 20            150          -4.522222      .789274       1.909761
 30            150          -5.288423      .732177       1.701277
 40            150          -6.424298      .661835       1.437723
 50            150          -8.02315       .586712       1.147087
 60            150          -10.27591      .515902       .863523 
 70            150          -13.63215      .458029       .624154 
 80            150          -19.55762      .420186       .46362  
 90            150          -999           .407031       .407031 
 0             160          -7.230795      1.547888      2.088172
 10            160          -7.369498      1.542155      2.067093
 20            160          -7.794011      1.524955      2.005401
 30            160          -8.529692      1.498378      1.909761
 40            160          -9.627964      1.465639      1.790776
 50            160          -11.18663      1.430702      1.662136
 60            160          -13.40148      1.397802      1.539303
 70            160          -16.72671      1.370939      1.437723
 80            160          -22.63189      1.353386      1.3707  
 90            160          -999           1.347287      1.347287
 0             170          -13.11842      1.955201      2.088172
 10            170          -13.25278      1.953813      2.082833
 20            170          -13.66444      1.949468      2.067093
 30            170          -14.38031      1.942705      2.042813
 40            170          -15.45419      1.934353      2.012876
 50            170          -16.98684      1.925432      1.980867
 60            170          -19.17719      1.917031      1.950657
 70            170          -22.48242      1.910172      1.925938
 80            170          -28.37453      1.905691      1.909761
 90            170          -999           1.904134      1.904134
 0             180          -999           2.088172      2.088172
 10            180          -999           2.088172      2.088172
 20            180          -999           2.088172      2.088172
 30            180          -999           2.088172      2.088172
 40            180          -999           2.088172      2.088172
 50            180          -999           2.088172      2.088172
 60            180          -999           2.088172      2.088172
 70            180          -999           2.088172      2.088172
 80            180          -999           2.088172      2.088172
 90            180          -999           2.088172      2.088172
 0             190          -13.11842      1.955201      2.088172
 10            190          -13.25315      1.953448      2.082468
 20            190          -13.66516      1.948748      2.066373
 30            190          -14.38136      1.941652      2.04176 
 40            190          -15.45555      1.932998      2.011521
 50            190          -16.98846      1.923816      1.979251
 60            190          -19.17902      1.915202      1.948829
 70            190          -22.4844       1.908186      1.923953
 80            190          -28.37661      1.903609      1.907679
 90            190          -999           1.90202       1.90202 
 0             200          -7.230795      1.547888      2.088172
 10            200          -7.370218      1.541436      2.066373
 20            200          -7.795431      1.523535      2.003981
 30            200          -8.531774      1.496296      1.907679
 40            200          -9.630649      1.462954      1.78809 
 50            200          -11.18984      1.427489      1.658924
 60            200          -13.40513      1.394157      1.535659
 70            200          -16.73068      1.366973      1.433758
 80            200          -22.63606      1.349223      1.366536
 90            200          -999           1.343056      1.343056
 0             210          -3.932428      .838784       2.088172
 10            210          -4.078948      .825235       2.04176 
 20            210          -4.524304      .787193       1.907679
 30            210          -5.291485      .729115       1.698215
 40            210          -6.428264      .657869       1.433758
 50            210          -8.027914      .581949       1.142323
 60            210          -10.28134      .510476       .858097 
 70            210          -13.63807      .452105       .61823  
 80            210          -19.56385      .413953       .457387 
 90            210          -999           .400693       .400693 
 0             220          -1.750478     -.226749       2.088172
 10            220          -1.905652     -.248952       2.011521
 20            220          -2.375696     -.311683       1.78809 
 30            220          -3.180781     -.407664       1.433758
 40            220          -4.364282     -.525632       .976331 
 50            220          -6.01396      -.65158        .457387 
 60            220          -8.314696     -.770367      -.066212 
 70            220          -11.71023     -.86753       -.523802 
 80            220          -17.66144     -.931113      -.839874 
 90            220          -999          -.953226      -.953226 
 0             230          -.226749      -1.750478      2.088172
 10            230          -.391104      -1.781863      1.979251
 20            230          -.887431      -1.870877      1.658924
 30            230          -1.732972     -2.007314      1.142323
 40            230          -2.966501     -2.17531       .457387 
 50            230          -4.669938     -2.355017     -.349729 
 60            230          -7.021699     -2.524828     -1.205214
 70            230          -10.4592      -2.663962     -1.996452
 80            230          -16.43799     -2.755124     -2.573003
 90            230          -999          -2.786849     -2.786849
 0             240           .838784      -3.932428      2.088172
 10            240           .665815      -3.972427      1.948829
 20            240           .14477       -4.086159      1.535659
 30            240          -.738911      -4.260737      .858097 
 40            240          -2.019754     -4.476046     -.066212 
 50            240          -3.774216     -4.706778     -1.205214
 60            240          -6.174584     -4.925197     -2.494816
 70            240          -9.652198     -5.104445     -3.798105
 80            240          -15.65741     -5.222032     -4.84593 
 90            240          -999          -5.262981     -5.262981
 0             250           1.547888     -7.230795      2.088172
 10            250           1.367903     -7.277809      1.923953
 20            250           .82669       -7.411709      1.433758
 30            250          -.088178      -7.617474      .61823  
 40            250          -1.407814     -7.871576     -.523802 
 50            250          -3.204246     -8.144278     -1.996452
 60            250          -5.644728     -8.402811     -3.798105
 70            250          -9.155547     -8.615263     -5.866709
 80            250          -15.18269     -8.754775     -7.864139
 90            250          -999          -8.803385     -8.803385
 0             260           1.955201     -13.11842      2.088172
 10            260           1.770638     -13.17002      1.907679
 20            260           1.216252     -13.31709      1.366536
 30            260           .280982      -13.54326      .457387 
 40            260          -1.064084     -13.82279     -.839874 
 50            260          -2.888095     -14.12307     -2.573003
 60            260          -5.355003     -14.40803     -4.84593 
 70            260          -8.887746     -14.6424      -7.864139
 80            260          -14.92939     -14.79642     -11.85209
 90            260          -999          -14.8501      -14.8501 
 0             270           2.088172     -999           2.088172
 10            270           1.90202      -999           1.90202 
 20            270           1.343056     -999           1.343056
 30            270           .400693      -999           .400693 
 40            270          -.953226      -999          -.953226 
 50            270          -2.786849     -999          -2.786849
 60            270          -5.262981     -999          -5.262981
 70            270          -8.803385     -999          -8.803385
 80            270          -14.8501      -999          -14.8501 
 90            270          -999          -999          -999     
 0             280           1.955201     -13.11842      2.088172
 10            280           1.770638     -13.17002      1.907679
 20            280           1.216252     -13.31709      1.366536
 30            280           .280982      -13.54326      .457387 
 40            280          -1.064084     -13.82279     -.839874 
 50            280          -2.888095     -14.12307     -2.573003
 60            280          -5.355003     -14.40803     -4.84593 
 70            280          -8.887746     -14.6424      -7.864139
 80            280          -14.92939     -14.79642     -11.85209
 90            280          -999          -14.8501      -14.8501 
 0             290           1.547888     -7.230795      2.088172
 10            290           1.367903     -7.277809      1.923953
 20            290           .82669       -7.411709      1.433758
 30            290          -.088178      -7.617474      .61823  
 40            290          -1.407814     -7.871576     -.523802 
 50            290          -3.204246     -8.144278     -1.996452
 60            290          -5.644728     -8.402811     -3.798105
 70            290          -9.155547     -8.615263     -5.866709
 80            290          -15.18269     -8.754775     -7.864139
 90            290          -999          -8.803385     -8.803385
 0             300           .838784      -3.932428      2.088172
 10            300           .665815      -3.972427      1.948829
 20            300           .14477       -4.086159      1.535659
 30            300          -.738911      -4.260737      .858097 
 40            300          -2.019754     -4.476046     -.066212 
 50            300          -3.774216     -4.706778     -1.205214
 60            300          -6.174584     -4.925197     -2.494816
 70            300          -9.652198     -5.104445     -3.798105
 80            300          -15.65741     -5.222032     -4.84593 
 90            300          -999          -5.262981     -5.262981
 0             310          -.226749      -1.750478      2.088172
 10            310          -.391104      -1.781863      1.979251
 20            310          -.887431      -1.870877      1.658924
 30            310          -1.732972     -2.007314      1.142323
 40            310          -2.966501     -2.17531       .457387 
 50            310          -4.669938     -2.355017     -.349729 
 60            310          -7.021699     -2.524828     -1.205214
 70            310          -10.4592      -2.663962     -1.996452
 80            310          -16.43799     -2.755124     -2.573003
 90            310          -999          -2.786849     -2.786849
 0             320          -1.750478     -.226749       2.088172
 10            320          -1.905652     -.248952       2.011521
 20            320          -2.375696     -.311683       1.78809 
 30            320          -3.180781     -.407664       1.433758
 40            320          -4.364282     -.525632       .976331 
 50            320          -6.01396      -.65158        .457387 
 60            320          -8.314696     -.770367      -.066212 
 70            320          -11.71023     -.86753       -.523802 
 80            320          -17.66144     -.931113      -.839874 
 90            320          -999          -.953226      -.953226 
 0             330          -3.932428      .838784       2.088172
 10            330          -4.078948      .825235       2.04176 
 20            330          -4.524304      .787193       1.907679
 30            330          -5.291485      .729115       1.698215
 40            330          -6.428264      .657869       1.433758
 50            330          -8.027914      .581949       1.142323
 60            330          -10.28134      .510476       .858097 
 70            330          -13.63807      .452105       .61823  
 80            330          -19.56385      .413953       .457387 
 90            330          -999           .400693       .400693 
 0             340          -7.230795      1.547888      2.088172
 10            340          -7.370218      1.541436      2.066373
 20            340          -7.795431      1.523535      2.003981
 30            340          -8.531774      1.496296      1.907679
 40            340          -9.630649      1.462954      1.78809 
 50            340          -11.18984      1.427489      1.658924
 60            340          -13.40513      1.394157      1.535659
 70            340          -16.73068      1.366973      1.433758
 80            340          -22.63606      1.349223      1.366536
 90            340          -999           1.343056      1.343056
 0             350          -13.11842      1.955201      2.088172
 10            350          -13.25315      1.953448      2.082468
 20            350          -13.66516      1.948748      2.066373
 30            350          -14.38136      1.941652      2.04176 
 40            350          -15.45555      1.932998      2.011521
 50            350          -16.98846      1.923816      1.979251
 60            350          -19.17902      1.915202      1.948829
 70            350          -22.4844       1.908186      1.923953
 80            350          -28.37661      1.903609      1.907679
 90            350          -999           1.90202       1.90202 
 0             360          -999           2.088172      2.088172
 10            360          -999           2.088172      2.088172
 20            360          -999           2.088172      2.088172
 30            360          -999           2.088172      2.088172
 40            360          -999           2.088172      2.088172
 50            360          -999           2.088172      2.088172
 60            360          -999           2.088172      2.088172
 70            360          -999           2.088172      2.088172
 80            360          -999           2.088172      2.088172
 90            360          -999           2.088172      2.088172