                   ****************************************
                     MINI-NUMERICAL ELECTROMAGNETICS CODE
                                   MININEC
                   ****************************************

FREQUENCY (MHZ): 600
    WAVE LENGTH =  .499667  METERS

ENVIRONMENT (+1 FOR FREE SPACE, -1 FOR GROUND PLANE): +1

NO. OF GEO-OBJECTS: 2

WIRE NO. 1
            COORDINATES                                 END         NO. OF
   X             Y             Z          RADIUS     CONNECTION     SEGMENTS
 0             .110864       0                          0
 0             0             0             .004195      0             10

WIRE NO. 2
            COORDINATES                                 END         NO. OF
   X             Y             Z          RADIUS     CONNECTION     SEGMENTS
 0            -.110864       0                          0
 0             0             0             .003175     -1             10

                  **** ANTENNA GEOMETRY ****

WIRE NO.  1 COORDINATES                                 CONNECTION PULSE
X             Y             Z             RADIUS        END1 END2  NO.
 0             .099777       0             .004195       0    1   1
 0             .08869        0             .004195       1    1   2
 0             .077604       0             .004195       1    1   3
 0             .066518       0             .004195       1    1   4
 0             .055431       0             .004195       1    1   5
 0             .044345       0             .004195       1    1   6
 0             .033259       0             .004195       1    1   7
 0             .022172       0             .004195       1    1   8
 0             .011086       0             .004195       1    0   9

WIRE NO.  2 COORDINATES                                 CONNECTION PULSE
X             Y             Z             RADIUS        END1 END2  NO.
 0            -.099777       0             .003175       0    2  10
 0            -.08869        0             .003175       2    2  11
 0            -.077604       0             .003175       2    2  12
 0            -.066518       0             .003175       2    2  13
 0            -.055431       0             .003175       2    2  14
 0            -.044345       0             .003175       2    2  15
 0            -.033259       0             .003175       2    2  16
 0            -.022172       0             .003175       2    2  17
 0            -.011086       0             .003175       2    2  18
 0             0             0             .003175       2   -1  19

NO. OF SOURCES :  1
PULSE NO., VOLTAGE MAGNITUDE, PHASE (DEGREES): 19 , 1 , 0
NUMBER OF LOADS 20
PULSE NO.,RESISTANCE,REACTANCE:  1 ,  .003503  ,  .003503 
PULSE NO.,RESISTANCE,REACTANCE:  2 ,  .003503  ,  .003503 
PULSE NO.,RESISTANCE,REACTANCE:  3 ,  .003503  ,  .003503 
PULSE NO.,RESISTANCE,REACTANCE:  4 ,  .003503  ,  .003503 
PULSE NO.,RESISTANCE,REACTANCE:  5 ,  .003503  ,  .003503 
PULSE NO.,RESISTANCE,REACTANCE:  6 ,  .003503  ,  .003503 
PULSE NO.,RESISTANCE,REACTANCE:  7 ,  .003503  ,  .003503 
PULSE NO.,RESISTANCE,REACTANCE:  8 ,  .003503  ,  .003503 
PULSE NO.,RESISTANCE,REACTANCE:  9 ,  .003503  ,  .003503 
PULSE NO.,RESISTANCE,REACTANCE: 19 ,  .001751  ,  .001751 
PULSE NO.,RESISTANCE,REACTANCE:  1 ,  0        ,  2.330108
PULSE NO.,RESISTANCE,REACTANCE:  2 ,  0        ,  2.330108
PULSE NO.,RESISTANCE,REACTANCE:  3 ,  0        ,  2.330108
PULSE NO.,RESISTANCE,REACTANCE:  4 ,  0        ,  2.330108
PULSE NO.,RESISTANCE,REACTANCE:  5 ,  0        ,  2.330108
PULSE NO.,RESISTANCE,REACTANCE:  6 ,  0        ,  2.330108
PULSE NO.,RESISTANCE,REACTANCE:  7 ,  0        ,  2.330108
PULSE NO.,RESISTANCE,REACTANCE:  8 ,  0        ,  2.330108
PULSE NO.,RESISTANCE,REACTANCE:  9 ,  0        ,  2.330108
PULSE NO.,RESISTANCE,REACTANCE: 19 ,  0        ,  1.165054

********************    SOURCE DATA     ********************
PULSE 19      VOLTAGE = ( 1 , 0 J)
              CURRENT = ( 1.508666E-02 ,  3.114171E-03 J)
              IMPEDANCE = ( 63.5749  , -13.12306 J)
              POWER =  7.543328E-03  WATTS

********************    CURRENT DATA    ********************

WIRE NO.  1 :
PULSE         REAL          IMAGINARY     MAGNITUDE     PHASE
 NO.          (AMPS)        (AMPS)        (AMPS)        (DEGREES)
E              0             0             0             0
 1            -3.638250E-03  1.186764E-05  3.638269E-03  179.8131 
 2            -6.010193E-03 -5.382815E-05  6.010434E-03 -179.4869 
 3            -8.122686E-03 -1.729932E-04  8.124528E-03 -178.7799 
 4            -9.971733E-03 -3.441510E-04  9.977670E-03 -178.0234 
 5            -1.155927E-02 -5.662525E-04  1.157313E-02 -177.1955 
 6            -1.287216E-02 -8.395342E-04  1.289951E-02 -176.2684 
 7            -1.389491E-02 -1.166545E-03  1.394379E-02 -175.201  
 8            -1.461308E-02 -1.558094E-03  1.469591E-02 -173.9139 
 9            -1.501461E-02 -2.016339E-03  1.514940E-02 -172.3514 
J             -1.508666E-02 -3.114171E-03  1.540471E-02 -168.3369 
WIRE NO.  2 :
PULSE         REAL          IMAGINARY     MAGNITUDE     PHASE
 NO.          (AMPS)        (AMPS)        (AMPS)        (DEGREES)
E              0             0             0             0
 10            3.545850E-03 -9.648551E-06  3.545864E-03 -.155906  
 11            5.787241E-03  5.741354E-05  5.787526E-03  .568396  
 12            7.824320E-03  1.760876E-04  7.826301E-03  1.289233 
 13            9.618853E-03  3.459765E-04  9.625073E-03  2.05996  
 14            1.117941E-02  5.663644E-04  1.119375E-02  2.900204 
 15            1.249506E-02  8.380225E-04  1.252313E-02  3.836985 
 16            1.355298E-02  1.163852E-03  1.360286E-02  4.908192 
 17            1.434135E-02  1.557582E-03  1.442568E-02  6.198471 
 18            1.485096E-02  2.007313E-03  1.498600E-02  7.697671 
J              1.508666E-02  3.114171E-03  1.540471E-02  11.66312 

********************     FAR FIELD      ********************

ZENITH ANGLE : INITIAL,INCREMENT,NUMBER: 0 , 10 , 10
AZIMUTH ANGLE: INITIAL,INCREMENT,NUMBER: 0 , 10 , 37

********************    PATTERN DATA    ********************
ZENITH        AZIMUTH       VERTICAL      HORIZONTAL    TOTAL
 ANGLE         ANGLE        PATTERN (DB)  PATTERN (DB)  PATTERN (DB)
 0             0            -999           2.088118      2.088118
 10            0            -999           2.088118      2.088118
 20            0            -999           2.088118      2.088118
 30            0            -999           2.088118      2.088118
 40            0            -999           2.088118      2.088118
 50            0            -999           2.088118      2.088118
 60            0            -999           2.088118      2.088118
 70            0            -999           2.088118      2.088118
 80            0            -999           2.088118      2.088118
 90            0            -999           2.088118      2.088118
 0             10           -13.11848      1.955148      2.088118
 10            10           -13.25284      1.95376       2.08278 
 20            10           -13.66449      1.949415      2.067039
 30            10           -14.38036      1.942651      2.042759
 40            10           -15.45425      1.934299      2.012823
 50            10           -16.9869       1.925379      1.980814
 60            10           -19.17725      1.916977      1.950604
 70            10           -22.48247      1.910118      1.925885
 80            10           -28.37458      1.905638      1.909707
 90            10           -999           1.904081      1.904081
 0             20           -7.230848      1.547835      2.088118
 10            20           -7.369552      1.542102      2.067039
 20            20           -7.794064      1.524902      2.005347
 30            20           -8.529745      1.498325      1.909707
 40            20           -9.628017      1.465586      1.790723
 50            20           -11.18668      1.430648      1.662083
 60            20           -13.40153      1.397748      1.53925 
 70            20           -16.72676      1.370885      1.43767 
 80            20           -22.63195      1.353333      1.370646
 90            20           -999           1.347233      1.347233
 0             30           -3.932482      .838731       2.088118
 10            30           -4.077948      .826235       2.042759
 20            30           -4.522275      .789221       1.909707
 30            30           -5.288477      .732123       1.701223
 40            30           -6.424352      .661782       1.43767 
 50            30           -8.023204      .586659       1.147033
 60            30           -10.27596      .515848       .863469 
 70            30           -13.6322       .457976       .6241   
 80            30           -19.55768      .420133       .463567 
 90            30           -999           .406978       .406978 
 0             40           -1.750532     -.226802       2.088118
 10            40           -1.904351     -.24765        2.012823
 20            40           -2.373064     -.309051       1.790723
 30            40           -3.176868     -.403752       1.43767 
 40            40           -4.359174     -.520524       .981439 
 50            40           -6.00778      -.6454         .463567 
 60            40           -8.307614     -.763284      -.059129 
 70            40           -11.70246     -.85976       -.516032 
 80            40           -17.65324     -.922912      -.831672 
 90            40           -999          -.944877      -.944877 
 0             50           -.226802      -1.750532      2.088118
 10            50           -.389542      -1.7803        1.980814
 20            50           -.884272      -1.867718      1.662083
 30            50           -1.728262     -2.002604      1.147033
 40            50           -2.960321     -2.16913       .463567 
 50            50           -4.66242      -2.347499     -.342212 
 60            50           -7.013036     -2.516166     -1.196551
 70            50           -10.44965     -2.654416     -1.986906
 80            50           -16.42788     -2.745018     -2.562897
 90            50           -999          -2.776551     -2.776551
 0             60            .838731      -3.932482      2.088118
 10            60            .66759       -3.970652      1.950604
 20            60            .148361      -4.082568      1.53925 
 30            60           -.733539      -4.255364      .863469 
 40            60           -2.012672     -4.468963     -.059129 
 50            60           -3.765553     -4.698116     -1.196551
 60            60           -6.16455      -4.915163     -2.484783
 70            60           -9.641092     -5.093339     -3.786999
 80            60           -15.64562     -5.21024      -4.834138
 90            60           -999          -5.250952     -5.250952
 0             70            1.547835     -7.230848      2.088118
 10            70            1.369835     -7.275877      1.925885
 20            70            .830602      -7.407797      1.43767 
 30            70           -.082307      -7.611603      .6241   
 40            70           -1.400044     -7.863806     -.516032 
 50            70           -3.1947       -8.134732     -1.986906
 60            70           -5.633622     -8.391705     -3.786999
 70            70           -9.143209     -8.602925     -5.854371
 80            70           -15.16955     -8.741642     -7.851006
 90            70           -999          -8.789977     -8.789977
 0             80            1.955148     -13.11848      2.088118
 10            80            1.772667     -13.16799      1.909707
 20            80            1.220362     -13.31298      1.370646
 30            80            .287162      -13.53708      .463567 
 40            80           -1.055882     -13.81459     -.831672 
 50            80           -2.877989     -14.11296     -2.562897
 60            80           -5.343211     -14.39624     -4.834138
 70            80           -8.874613     -14.62927     -7.851006
 80            80           -14.91539     -14.78242     -11.83809
 90            80           -999          -14.8358      -14.8358 
 0             90            2.088118     -999           2.088118
 10            90            1.904081     -999           1.904081
 20            90            1.347233     -999           1.347233
 30            90            .406978      -999           .406978 
 40            90           -.944877      -999          -.944877 
 50            90           -2.776551     -999          -2.776551
 60            90           -5.250952     -999          -5.250952
 70            90           -8.789977     -999          -8.789977
 80            90           -14.8358      -999          -14.8358 
 90            90           -999          -999          -999     
 0             100           1.955148     -13.11848      2.088118
 10            100           1.772667     -13.16799      1.909707
 20            100           1.220362     -13.31298      1.370646
 30            100           .287162      -13.53708      .463567 
 40            100          -1.055882     -13.81459     -.831672 
 50            100          -2.877989     -14.11296     -2.562897
 60            100          -5.343211     -14.39624     -4.834138
 70            100          -8.874613     -14.62927     -7.851006
 80            100          -14.91539     -14.78242     -11.83809
 90            100          -999          -14.8358      -14.8358 
 0             110           1.547835     -7.230848      2.088118
 10            110           1.369835     -7.275877      1.925885
 20            110           .830602      -7.407797      1.43767 
 30            110          -.082307      -7.611603      .6241   
 40            110          -1.400044     -7.863806     -.516032 
 50            110          -3.1947       -8.134732     -1.986906
 60            110          -5.633622     -8.391705     -3.786999
 70            110          -9.143209     -8.602925     -5.854371
 80            110          -15.16955     -8.741642     -7.851006
 90            110          -999          -8.789977     -8.789977
 0             120           .838731      -3.932482      2.088118
 10            120           .66759       -3.970652      1.950604
 20            120           .148361      -4.082568      1.53925 
 30            120          -.733539      -4.255364      .863469 
 40            120          -2.012672     -4.468963     -.059129 
 50            120          -3.765553     -4.698116     -1.196551
 60            120          -6.16455      -4.915163     -2.484783
 70            120          -9.641092     -5.093339     -3.786999
 80            120          -15.64562     -5.21024      -4.834138
 90            120          -999          -5.250952     -5.250952
 0             130          -.226802      -1.750532      2.088118
 10            130          -.389542      -1.7803        1.980814
 20            130          -.884272      -1.867718      1.662083
 30            130          -1.728262     -2.002604      1.147033
 40            130          -2.960321     -2.16913       .463567 
 50            130          -4.66242      -2.347499     -.342212 
 60            130          -7.013036     -2.516166     -1.196551
 70            130          -10.44965     -2.654416     -1.986906
 80            130          -16.42788     -2.745018     -2.562897
 90            130          -999          -2.776551     -2.776551
 0             140          -1.750532     -.226802       2.088118
 10            140          -1.904351     -.24765        2.012823
 20            140          -2.373064     -.309051       1.790723
 30            140          -3.176868     -.403752       1.43767 
 40            140          -4.359174     -.520524       .981439 
 50            140          -6.00778      -.6454         .463567 
 60            140          -8.307614     -.763284      -.059129 
 70            140          -11.70246     -.85976       -.516032 
 80            140          -17.65324     -.922912      -.831672 
 90            140          -999          -.944877      -.944877 
 0             150          -3.932482      .838731       2.088118
 10            150          -4.077948      .826235       2.042759
 20            150          -4.522275      .789221       1.909707
 30            150          -5.288477      .732123       1.701223
 40            150          -6.424352      .661782       1.43767 
 50            150          -8.023204      .586659       1.147033
 60            150          -10.27596      .515848       .863469 
 70            150          -13.6322       .457976       .6241   
 80            150          -19.55768      .420133       .463567 
 90            150          -999           .406978       .406978 
 0             160          -7.230848      1.547835      2.088118
 10            160          -7.369552      1.542102      2.067039
 20            160          -7.794064      1.524902      2.005347
 30            160          -8.529745      1.498325      1.909707
 40            160          -9.628017      1.465586      1.790723
 50            160          -11.18668      1.430648      1.662083
 60            160          -13.40153      1.397748      1.53925 
 70            160          -16.72676      1.370885      1.43767 
 80            160          -22.63195      1.353333      1.370646
 90            160          -999           1.347233      1.347233
 0             170          -13.11848      1.955148      2.088118
 10            170          -13.25284      1.95376       2.08278 
 20            170          -13.66449      1.949415      2.067039
 30            170          -14.38036      1.942651      2.042759
 40            170          -15.45425      1.934299      2.012823
 50            170          -16.9869       1.925379      1.980814
 60            170          -19.17725      1.916977      1.950604
 70            170          -22.48247      1.910118      1.925885
 80            170          -28.37458      1.905638      1.909707
 90            170          -999           1.904081      1.904081
 0             180          -999           2.088118      2.088118
 10            180          -999           2.088118      2.088118
 20            180          -999           2.088118      2.088118
 30            180          -999           2.088118      2.088118
 40            180          -999           2.088118      2.088118
 50            180          -999           2.088118      2.088118
 60            180          -999           2.088118      2.088118
 70            180          -999           2.088118      2.088118
 80            180          -999           2.088118      2.088118
 90            180          -999           2.088118      2.088118
 0             190          -13.11848      1.955148      2.088118
 10            190          -13.2532       1.953395      2.082415
 20            190          -13.66521      1.948695      2.06632 
 30            190          -14.38141      1.941599      2.041706
 40            190          -15.4556       1.932945      2.011468
 50            190          -16.98851      1.923763      1.979198
 60            190          -19.17908      1.915149      1.948775
 70            190          -22.48446      1.908133      1.9239  
 80            190          -28.37666      1.903556      1.907626
 90            190          -999           1.901967      1.901967
 0             200          -7.230848      1.547835      2.088118
 10            200          -7.370271      1.541382      2.06632 
 20            200          -7.795484      1.523482      2.003927
 30            200          -8.531827      1.496243      1.907626
 40            200          -9.630703      1.462901      1.788037
 50            200          -11.1899       1.427436      1.65887 
 60            200          -13.40518      1.394104      1.535606
 70            200          -16.73073      1.36692       1.433704
 80            200          -22.63611      1.349169      1.366483
 90            200          -999           1.343003      1.343003
 0             210          -3.932482      .838731       2.088118
 10            210          -4.079001      .825182       2.041706
 20            210          -4.524357      .787139       1.907626
 30            210          -5.291538      .729062       1.698162
 40            210          -6.428317      .657816       1.433704
 50            210          -8.027967      .581896       1.14227 
 60            210          -10.28139      .510423       .858044 
 70            210          -13.63813      .452052       .618177 
 80            210          -19.56391      .4139         .457334 
 90            210          -999           .400639       .400639 
 0             220          -1.750532     -.226802       2.088118
 10            220          -1.905705     -.249005       2.011468
 20            220          -2.37575      -.311736       1.788037
 30            220          -3.180834     -.407717       1.433704
 40            220          -4.364335     -.525685       .976277 
 50            220          -6.014013     -.651634       .457334 
 60            220          -8.314749     -.77042       -.066265 
 70            220          -11.71028     -.867584      -.523856 
 80            220          -17.66149     -.931166      -.839927 
 90            220          -999          -.953279      -.953279 
 0             230          -.226802      -1.750532      2.088118
 10            230          -.391158      -1.781916      1.979198
 20            230          -.887485      -1.87093       1.65887 
 30            230          -1.733025     -2.007367      1.14227 
 40            230          -2.966554     -2.175363      .457334 
 50            230          -4.669991     -2.355071     -.349783 
 60            230          -7.021752     -2.524882     -1.205267
 70            230          -10.45925     -2.664015     -1.996505
 80            230          -16.43804     -2.755177     -2.573056
 90            230          -999          -2.786903     -2.786903
 0             240           .838731      -3.932482      2.088118
 10            240           .665762      -3.97248       1.948775
 20            240           .144717      -4.086212      1.535606
 30            240          -.738965      -4.26079       .858044 
 40            240          -2.019807     -4.476099     -.066265 
 50            240          -3.774269     -4.706832     -1.205267
 60            240          -6.174637     -4.92525      -2.49487 
 70            240          -9.652252     -5.104498     -3.798159
 80            240          -15.65747     -5.222085     -4.845984
 90            240          -999          -5.263034     -5.263034
 0             250           1.547835     -7.230848      2.088118
 10            250           1.367849     -7.277862      1.9239  
 20            250           .826636      -7.411763      1.433704
 30            250          -.088231      -7.617527      .618177 
 40            250          -1.407867     -7.871629     -.523856 
 50            250          -3.204299     -8.144332     -1.996505
 60            250          -5.644782     -8.402864     -3.798159
 70            250          -9.1556       -8.615317     -5.866762
 80            250          -15.18274     -8.754828     -7.864192
 90            250          -999          -8.803439     -8.803439
 0             260           1.955148     -13.11848      2.088118
 10            260           1.770585     -13.17007      1.907626
 20            260           1.216198     -13.31714      1.366483
 30            260           .280929      -13.54331      .457334 
 40            260          -1.064137     -13.82284     -.839927 
 50            260          -2.888148     -14.12312     -2.573056
 60            260          -5.355056     -14.40808     -4.845984
 70            260          -8.887799     -14.64246     -7.864192
 80            260          -14.92944     -14.79647     -11.85215
 90            260          -999          -14.85015     -14.85015
 0             270           2.088118     -999           2.088118
 10            270           1.901967     -999           1.901967
 20            270           1.343003     -999           1.343003
 30            270           .400639      -999           .400639 
 40            270          -.953279      -999          -.953279 
 50            270          -2.786903     -999          -2.786903
 60            270          -5.263034     -999          -5.263034
 70            270          -8.803439     -999          -8.803439
 80            270          -14.85015     -999          -14.85015
 90            270          -999          -999          -999     
 0             280           1.955148     -13.11848      2.088118
 10            280           1.770585     -13.17007      1.907626
 20            280           1.216198     -13.31714      1.366483
 30            280           .280929      -13.54331      .457334 
 40            280          -1.064137     -13.82284     -.839927 
 50            280          -2.888148     -14.12312     -2.573056
 60            280          -5.355056     -14.40808     -4.845984
 70            280          -8.887799     -14.64246     -7.864192
 80            280          -14.92944     -14.79647     -11.85215
 90            280          -999          -14.85015     -14.85015
 0             290           1.547835     -7.230848      2.088118
 10            290           1.367849     -7.277862      1.9239  
 20            290           .826636      -7.411763      1.433704
 30            290          -.088231      -7.617527      .618177 
 40            290          -1.407867     -7.871629     -.523856 
 50            290          -3.204299     -8.144332     -1.996505
 60            290          -5.644782     -8.402864     -3.798159
 70            290          -9.1556       -8.615317     -5.866762
 80            290          -15.18274     -8.754828     -7.864192
 90            290          -999          -8.803439     -8.803439
 0             300           .838731      -3.932482      2.088118
 10            300           .665762      -3.97248       1.948775
 20            300           .144717      -4.086212      1.535606
 30            300          -.738965      -4.26079       .858044 
 40            300          -2.019807     -4.476099     -.066265 
 50            300          -3.774269     -4.706832     -1.205267
 60            300          -6.174637     -4.92525      -2.49487 
 70            300          -9.652252     -5.104498     -3.798159
 80            300          -15.65747     -5.222085     -4.845984
 90            300          -999          -5.263034     -5.263034
 0             310          -.226802      -1.750532      2.088118
 10            310          -.391158      -1.781916      1.979198
 20            310          -.887485      -1.87093       1.65887 
 30            310          -1.733025     -2.007367      1.14227 
 40            310          -2.966554     -2.175363      .457334 
 50            310          -4.669991     -2.355071     -.349783 
 60            310          -7.021752     -2.524882     -1.205267
 70            310          -10.45925     -2.664015     -1.996505
 80            310          -16.43804     -2.755177     -2.573056
 90            310          -999          -2.786903     -2.786903
 0             320          -1.750532     -.226802       2.088118
 10            320          -1.905705     -.249005       2.011468
 20            320          -2.37575      -.311736       1.788037
 30            320          -3.180834     -.407717       1.433704
 40            320          -4.364335     -.525685       .976277 
 50            320          -6.014013     -.651634       .457334 
 60            320          -8.314749     -.77042       -.066265 
 70            320          -11.71028     -.867584      -.523856 
 80            320          -17.66149     -.931166      -.839927 
 90            320          -999          -.953279      -.953279 
 0             330          -3.932482      .838731       2.088118
 10            330          -4.079001      .825182       2.041706
 20            330          -4.524357      .787139       1.907626
 30            330          -5.291538      .729062       1.698162
 40            330          -6.428317      .657816       1.433704
 50            330          -8.027967      .581896       1.14227 
 60            330          -10.28139      .510423       .858044 
 70            330          -13.63813      .452052       .618177 
 80            330          -19.56391      .4139         .457334 
 90            330          -999           .400639       .400639 
 0             340          -7.230848      1.547835      2.088118
 10            340          -7.370271      1.541382      2.06632 
 20            340          -7.795484      1.523482      2.003927
 30            340          -8.531827      1.496243      1.907626
 40            340          -9.630703      1.462901      1.788037
 50            340          -11.1899       1.427436      1.65887 
 60            340          -13.40518      1.394104      1.535606
 70            340          -16.73073      1.36692       1.433704
 80            340          -22.63611      1.349169      1.366483
 90            340          -999           1.343003      1.343003
 0             350          -13.11848      1.955148      2.088118
 10            350          -13.2532       1.953395      2.082415
 20            350          -13.66521      1.948695      2.06632 
 30            350          -14.38141      1.941599      2.041706
 40            350          -15.4556       1.932945      2.011468
 50            350          -16.98851      1.923763      1.979198
 60            350          -19.17908      1.915149      1.948775
 70            350          -22.48446      1.908133      1.9239  
 80            350          -28.37666      1.903556      1.907626
 90            350          -999           1.901967      1.901967
 0             360          -999           2.088118      2.088118
 10            360          -999           2.088118      2.088118
 20            360          -999           2.088118      2.088118
 30            360          -999           2.088118      2.088118
 40            360          -999           2.088118      2.088118
 50            360          -999           2.088118      2.088118
 60            360          -999           2.088118      2.088118
 70            360          -999           2.088118      2.088118
 80            360          -999           2.088118      2.088118
 90            360          -999           2.088118      2.088118
