                   ****************************************
                     MINI-NUMERICAL ELECTROMAGNETICS CODE
                                   MININEC
                   ****************************************

FREQUENCY (MHZ): 600
    WAVE LENGTH =  .499667  METERS

ENVIRONMENT (+1 FOR FREE SPACE, -1 FOR GROUND PLANE): +1

NO. OF GEO-OBJECTS: 2

WIRE NO. 1
            COORDINATES                                 END         NO. OF
   X             Y             Z          RADIUS     CONNECTION     SEGMENTS
 0             .110864       0                          0
 0             0             0             .004195      0             10

WIRE NO. 2
            COORDINATES                                 END         NO. OF
   X             Y             Z          RADIUS     CONNECTION     SEGMENTS
 0            -.110864       0                          0
 0             0             0             .003175     -1             10

                  **** ANTENNA GEOMETRY ****

WIRE NO.  1 COORDINATES                                 CONNECTION PULSE
X             Y             Z             RADIUS        END1 END2  NO.
 0             .099777       0             .004195       0    1   1
 0             .08869        0             .004195       1    1   2
 0             .077604       0             .004195       1    1   3
 0             .066518       0             .004195       1    1   4
 0             .055431       0             .004195       1    1   5
 0             .044345       0             .004195       1    1   6
 0             .033259       0             .004195       1    1   7
 0             .022172       0             .004195       1    1   8
 0             .011086       0             .004195       1    0   9

WIRE NO.  2 COORDINATES                                 CONNECTION PULSE
X             Y             Z             RADIUS        END1 END2  NO.
 0            -.099777       0             .003175       0    2  10
 0            -.08869        0             .003175       2    2  11
 0            -.077604       0             .003175       2    2  12
 0            -.066518       0             .003175       2    2  13
 0            -.055431       0             .003175       2    2  14
 0            -.044345       0             .003175       2    2  15
 0            -.033259       0             .003175       2    2  16
 0            -.022172       0             .003175       2    2  17
 0            -.011086       0             .003175       2    2  18
 0             0             0             .003175       2   -1  19

NO. OF SOURCES :  1
PULSE NO., VOLTAGE MAGNITUDE, PHASE (DEGREES): 19 , 1 , 0
NUMBER OF LOADS 20
PULSE NO.,RESISTANCE,REACTANCE:  1 ,  .003503  ,  .003503 
PULSE NO.,RESISTANCE,REACTANCE:  2 ,  .003503  ,  .003503 
PULSE NO.,RESISTANCE,REACTANCE:  3 ,  .003503  ,  .003503 
PULSE NO.,RESISTANCE,REACTANCE:  4 ,  .003503  ,  .003503 
PULSE NO.,RESISTANCE,REACTANCE:  5 ,  .003503  ,  .003503 
PULSE NO.,RESISTANCE,REACTANCE:  6 ,  .003503  ,  .003503 
PULSE NO.,RESISTANCE,REACTANCE:  7 ,  .003503  ,  .003503 
PULSE NO.,RESISTANCE,REACTANCE:  8 ,  .003503  ,  .003503 
PULSE NO.,RESISTANCE,REACTANCE:  9 ,  .003503  ,  .003503 
PULSE NO.,RESISTANCE,REACTANCE:  1 ,  0        ,  2.33011 
PULSE NO.,RESISTANCE,REACTANCE:  2 ,  0        ,  2.33011 
PULSE NO.,RESISTANCE,REACTANCE:  3 ,  0        ,  2.33011 
PULSE NO.,RESISTANCE,REACTANCE:  4 ,  0        ,  2.33011 
PULSE NO.,RESISTANCE,REACTANCE:  5 ,  0        ,  2.33011 
PULSE NO.,RESISTANCE,REACTANCE:  6 ,  0        ,  2.33011 
PULSE NO.,RESISTANCE,REACTANCE:  7 ,  0        ,  2.33011 
PULSE NO.,RESISTANCE,REACTANCE:  8 ,  0        ,  2.33011 
PULSE NO.,RESISTANCE,REACTANCE:  9 ,  0        ,  2.33011 
PULSE NO.,RESISTANCE,REACTANCE: 19 ,  .001751  ,  .001751 
PULSE NO.,RESISTANCE,REACTANCE: 19 ,  0        ,  1.16505 

********************    SOURCE DATA     ********************
PULSE 19      VOLTAGE = ( 1 , 0 J)
              CURRENT = ( 1.502354E-02 ,  2.459564E-03 J)
              IMPEDANCE = ( 64.82475 , -10.61272 J)
              POWER =  7.511771E-03  WATTS

********************    CURRENT DATA    ********************

WIRE NO.  1 :
PULSE         REAL          IMAGINARY     MAGNITUDE     PHASE
 NO.          (AMPS)        (AMPS)        (AMPS)        (DEGREES)
E              0             0             0             0
 1            -3.926540E-03  2.843254E-04  3.936820E-03  175.8584 
 2            -6.199709E-03  3.641456E-04  6.210394E-03  176.6385 
 3            -8.293785E-03  3.765472E-04  8.302328E-03  177.4005 
 4            -1.011073E-02  3.144557E-04  1.011562E-02  178.2186 
 5            -1.166626E-02  1.804945E-04  1.166766E-02  179.1136 
 6            -1.294638E-02 -2.660747E-05  1.294640E-02 -179.8822 
 7            -1.393642E-02 -3.094494E-04  1.393986E-02 -178.728  
 8            -1.462225E-02 -6.883612E-04  1.463844E-02 -177.3047 
 9            -1.499297E-02 -1.107198E-03  1.503380E-02 -175.7765 
J             -1.502354E-02 -2.459564E-03  1.522354E-02 -170.7024 
WIRE NO.  2 :
PULSE         REAL          IMAGINARY     MAGNITUDE     PHASE
 NO.          (AMPS)        (AMPS)        (AMPS)        (DEGREES)
E              0             0             0             0
 10            3.507062E-03 -1.856340E-04  3.511971E-03 -3.029924 
 11            5.727627E-03 -2.299453E-04  5.732241E-03 -2.299001 
 12            7.748601E-03 -2.124761E-04  7.751514E-03 -1.570726 
 13            9.532046E-03 -1.316001E-04  9.532954E-03 -.790979  
 14            1.108626E-02  1.172397E-05  1.108627E-02  6.059156E-02 
 15            1.240023E-02  2.191046E-04  1.240217E-02  1.012276 
 16            1.346107E-02  4.945574E-04  1.347015E-02  2.104091 
 17            1.425672E-02  8.540359E-04  1.428228E-02  3.428154 
 18            1.477797E-02  1.283893E-03  1.483364E-02  4.965324 
J              1.502354E-02  2.459564E-03  1.522354E-02  9.297639 

********************     FAR FIELD      ********************

ZENITH ANGLE : INITIAL,INCREMENT,NUMBER: 0 , 10 , 10
AZIMUTH ANGLE: INITIAL,INCREMENT,NUMBER: 0 , 10 , 37

********************    PATTERN DATA    ********************
ZENITH        AZIMUTH       VERTICAL      HORIZONTAL    TOTAL
 ANGLE         ANGLE        PATTERN (DB)  PATTERN (DB)  PATTERN (DB)
 0             0            -999           2.090832      2.090832
 10            0            -999           2.090832      2.090832
 20            0            -999           2.090832      2.090832
 30            0            -999           2.090832      2.090832
 40            0            -999           2.090832      2.090832
 50            0            -999           2.090832      2.090832
 60            0            -999           2.090832      2.090832
 70            0            -999           2.090832      2.090832
 80            0            -999           2.090832      2.090832
 90            0            -999           2.090832      2.090832
 0             10           -13.11576      1.957861      2.090832
 10            10           -13.24897      1.957628      2.086649
 20            10           -13.65953      1.954376      2.072001
 30            10           -14.3744       1.948614      2.048722
 40            10           -15.4474       1.941148      2.019671
 50            10           -16.9793       1.932977      1.988411
 60            10           -19.16905      1.925173      1.958799
 70            10           -22.47384      1.918749      1.934516
 80            10           -28.36569      1.914532      1.918602
 90            10           -999           1.913064      1.913064
 0             20           -7.228134      1.550548      2.090832
 10            20           -7.36459       1.547063      2.072001
 20            20           -7.787027      1.531939      2.012384
 30            20           -8.52085       1.50722       1.918602
 40            20           -9.617516      1.476087      1.801224
 50            20           -11.17485      1.442482      1.673917
 60            20           -13.38866      1.410627      1.552129
 70            20           -16.71314      1.384514      1.451298
 80            20           -22.61787      1.367412      1.384725
 90            20           -999           1.361463      1.361463
 0             30           -3.929768      .841445       2.090832
 10            30           -4.071986      .832198       2.048722
 20            30           -4.51338       .798116       1.918602
 30            30           -5.277017      .743583       1.712683
 40            30           -6.410723      .67541        1.451298
 50            30           -8.007813      .60205        1.162424
 60            30           -10.25922      .532595       .880216 
 70            30           -13.6145       .475681       .641805 
 80            30           -19.5394       .438408       .481842 
 90            30           -999           .425442       .425442 
 0             40           -1.747818     -.224089       2.090832
 10            40           -1.897502     -.240802       2.019671
 20            40           -2.362563     -.29855        1.801224
 30            40           -3.16324      -.390123       1.451298
 40            40           -4.342957     -.504307       .997655 
 50            40           -5.989505     -.627125       .481842 
 60            40           -8.287784     -.743455      -.0393   
 70            40           -11.68155     -.83885       -.495122 
 80            40           -17.63169     -.901367      -.810127 
 90            40           -999          -.923123      -.923123 
 0             50           -.224089      -1.747818      2.090832
 10            50           -.381944      -1.772703      1.988411
 20            50           -.872438      -1.855884      1.673917
 30            50           -1.712871     -1.987213      1.162424
 40            50           -2.942046     -2.150855      .481842 
 50            50           -4.641896     -2.326976     -.321688 
 60            50           -6.990848     -2.493977     -1.174363
 70            50           -10.42633     -2.63109      -1.96358 
 80            50           -16.4039      -2.721032     -2.538911
 90            50           -999          -2.75235      -2.75235 
 0             60            .841445      -3.929768      2.090832
 10            60            .675786      -3.962456      1.958799
 20            60            .16124       -4.069689      1.552129
 30            60           -.716792      -4.238617      .880216 
 40            60           -1.992842     -4.449134     -.0393   
 50            60           -3.743365     -4.675927     -1.174363
 60            60           -6.140647     -4.89126      -2.460879
 70            60           -9.616038     -5.068284     -3.761945
 80            60           -15.61991     -5.184527     -4.808425
 90            60           -999          -5.225025     -5.225025
 0             70            1.550548     -7.228134      2.090832
 10            70            1.378466     -7.267246      1.934516
 20            70            .84423       -7.394169      1.451298
 30            70           -.064602      -7.593898      .641805 
 40            70           -1.379134     -7.842896     -.495122 
 50            70           -3.171374     -8.111406     -1.96358 
 60            70           -5.608568     -8.366651     -3.761945
 70            70           -9.117011     -8.576727     -5.828173
 80            70           -15.14271     -8.714797     -7.824161
 90            70           -999          -8.762924     -8.762924
 0             80            1.957861     -13.11576      2.090832
 10            80            1.781562     -13.15909      1.918602
 20            80            1.234441     -13.2989       1.384725
 30            80            .305437      -13.5188       .481842 
 40            80           -1.034338     -13.79304     -.810127 
 50            80           -2.854003     -14.08898     -2.538911
 60            80           -5.317498     -14.37052     -4.808425
 70            80           -8.847768     -14.60243     -7.824161
 80            80           -14.88791     -14.75494     -11.81061
 90            80           -999          -14.80811     -14.80811
 0             90            2.090832     -999           2.090832
 10            90            1.913064     -999           1.913064
 20            90            1.361463     -999           1.361463
 30            90            .425442      -999           .425442 
 40            90           -.923123      -999          -.923123 
 50            90           -2.75235      -999          -2.75235 
 60            90           -5.225025     -999          -5.225025
 70            90           -8.762924     -999          -8.762924
 80            90           -14.80811     -999          -14.80811
 90            90           -999          -999          -999     
 0             100           1.957861     -13.11576      2.090832
 10            100           1.781562     -13.15909      1.918602
 20            100           1.234441     -13.2989       1.384725
 30            100           .305437      -13.5188       .481842 
 40            100          -1.034338     -13.79304     -.810127 
 50            100          -2.854003     -14.08898     -2.538911
 60            100          -5.317498     -14.37052     -4.808425
 70            100          -8.847768     -14.60243     -7.824161
 80            100          -14.88791     -14.75494     -11.81061
 90            100          -999          -14.80811     -14.80811
 0             110           1.550548     -7.228134      2.090832
 10            110           1.378466     -7.267246      1.934516
 20            110           .84423       -7.394169      1.451298
 30            110          -.064602      -7.593898      .641805 
 40            110          -1.379134     -7.842896     -.495122 
 50            110          -3.171374     -8.111406     -1.96358 
 60            110          -5.608568     -8.366651     -3.761945
 70            110          -9.117011     -8.576727     -5.828173
 80            110          -15.14271     -8.714797     -7.824161
 90            110          -999          -8.762924     -8.762924
 0             120           .841445      -3.929768      2.090832
 10            120           .675786      -3.962456      1.958799
 20            120           .16124       -4.069689      1.552129
 30            120          -.716792      -4.238617      .880216 
 40            120          -1.992842     -4.449134     -.0393   
 50            120          -3.743365     -4.675927     -1.174363
 60            120          -6.140647     -4.89126      -2.460879
 70            120          -9.616038     -5.068284     -3.761945
 80            120          -15.61991     -5.184527     -4.808425
 90            120          -999          -5.225025     -5.225025
 0             130          -.224089      -1.747818      2.090832
 10            130          -.381944      -1.772703      1.988411
 20            130          -.872438      -1.855884      1.673917
 30            130          -1.712871     -1.987213      1.162424
 40            130          -2.942046     -2.150855      .481842 
 50            130          -4.641896     -2.326976     -.321688 
 60            130          -6.990848     -2.493977     -1.174363
 70            130          -10.42633     -2.63109      -1.96358 
 80            130          -16.4039      -2.721032     -2.538911
 90            130          -999          -2.75235      -2.75235 
 0             140          -1.747818     -.224089       2.090832
 10            140          -1.897502     -.240802       2.019671
 20            140          -2.362563     -.29855        1.801224
 30            140          -3.16324      -.390123       1.451298
 40            140          -4.342957     -.504307       .997655 
 50            140          -5.989505     -.627125       .481842 
 60            140          -8.287784     -.743455      -.0393   
 70            140          -11.68155     -.83885       -.495122 
 80            140          -17.63169     -.901367      -.810127 
 90            140          -999          -.923123      -.923123 
 0             150          -3.929768      .841445       2.090832
 10            150          -4.071986      .832198       2.048722
 20            150          -4.51338       .798116       1.918602
 30            150          -5.277017      .743583       1.712683
 40            150          -6.410723      .67541        1.451298
 50            150          -8.007813      .60205        1.162424
 60            150          -10.25922      .532595       .880216 
 70            150          -13.6145       .475681       .641805 
 80            150          -19.5394       .438408       .481842 
 90            150          -999           .425442       .425442 
 0             160          -7.228134      1.550548      2.090832
 10            160          -7.36459       1.547063      2.072001
 20            160          -7.787027      1.531939      2.012384
 30            160          -8.52085       1.50722       1.918602
 40            160          -9.617516      1.476087      1.801224
 50            160          -11.17485      1.442482      1.673917
 60            160          -13.38866      1.410627      1.552129
 70            160          -16.71314      1.384514      1.451298
 80            160          -22.61787      1.367412      1.384725
 90            160          -999           1.361463      1.361463
 0             170          -13.11576      1.957861      2.090832
 10            170          -13.24897      1.957628      2.086649
 20            170          -13.65953      1.954376      2.072001
 30            170          -14.3744       1.948614      2.048722
 40            170          -15.4474       1.941148      2.019671
 50            170          -16.9793       1.932977      1.988411
 60            170          -19.16905      1.925173      1.958799
 70            170          -22.47384      1.918749      1.934516
 80            170          -28.36569      1.914532      1.918602
 90            170          -999           1.913064      1.913064
 0             180          -999           2.090832      2.090832
 10            180          -999           2.090832      2.090832
 20            180          -999           2.090832      2.090832
 30            180          -999           2.090832      2.090832
 40            180          -999           2.090832      2.090832
 50            180          -999           2.090832      2.090832
 60            180          -999           2.090832      2.090832
 70            180          -999           2.090832      2.090832
 80            180          -999           2.090832      2.090832
 90            180          -999           2.090832      2.090832
 0             190          -13.11576      1.957861      2.090832
 10            190          -13.25167      1.954924      2.083944
 20            190          -13.66486      1.949048      2.066673
 30            190          -14.38219      1.940822      2.04093 
 40            190          -15.45742      1.931126      2.009649
 50            190          -16.99125      1.921026      1.976461
 60            190          -19.18257      1.911657      1.945283
 70            190          -22.48851      1.904077      1.919844
 80            190          -28.38107      1.899152      1.903221
 90            190          -999           1.897445      1.897445
 0             200          -7.228134      1.550548      2.090832
 10            200          -7.369918      1.541735      2.066673
 20            200          -7.797532      1.521434      2.00188 
 30            200          -8.536231      1.491839      1.903221
 40            200          -9.637327      1.456276      1.781413
 50            200          -11.19851      1.418824      1.650258
 60            200          -13.41545      1.38383       1.525331
 70            200          -16.74226      1.355391      1.422175
 80            200          -22.64842      1.336859      1.354173
 90            200          -999           1.330428      1.330428
 0             210          -3.929768      .841445       2.090832
 10            210          -4.079778      .824406       2.04093 
 20            210          -4.528761      .782735       1.903221
 30            210          -5.299578      .721022       1.690123
 40            210          -6.439846      .646287       1.422175
 50            210          -8.042674      .567189       1.127563
 60            210          -10.29879      .49302        .840641 
 70            210          -13.65759      .432593       .598717 
 80            210          -19.58466      .39315        .436584 
 90            210          -999           .37945        .37945  
 0             220          -1.747818     -.224089       2.090832
 10            220          -1.907525     -.250824       2.009649
 20            220          -2.382374     -.318361       1.781413
 30            220          -3.192363     -.419246       1.422175
 40            220          -4.380655     -.542004       .959958 
 50            220          -6.034763     -.672383       .436584 
 60            220          -8.339308     -.794979      -.090824 
 70            220          -11.73778     -.895079      -.551351 
 80            220          -17.69084     -.960518      -.869279 
 90            220          -999          -.983266      -.983266 
 0             230          -.224089      -1.747818      2.090832
 10            230          -.393894      -1.784653      1.976461
 20            230          -.896097      -1.879542      1.650258
 30            230          -1.747732     -2.022074      1.127563
 40            230          -2.987304     -2.196113      .436584 
 50            230          -4.696407     -2.381486     -.376198 
 60            230          -7.053098     -2.556227     -1.236613
 70            230          -10.49444     -2.6992       -2.03169 
 80            230          -16.47567     -2.792804     -2.610683
 90            230          -999          -2.825369     -2.825369
 0             240           .841445      -3.929768      2.090832
 10            240           .662269      -3.975973      1.945283
 20            240           .134442      -4.096487      1.525331
 30            240          -.756367      -4.278192      .840641 
 40            240          -2.044366     -4.500658     -.090824 
 50            240          -3.805615     -4.738177     -1.236613
 60            240          -6.211949     -4.962562     -2.532181
 70            240          -9.694248     -5.146494     -3.840155
 80            240          -15.70246     -5.267081     -4.890979
 90            240          -999          -5.309062     -5.309062
 0             250           1.550548     -7.228134      2.090832
 10            250           1.363793     -7.281918      1.919844
 20            250           .815107      -7.423292      1.422175
 30            250          -.107691      -7.636986      .598717 
 40            250          -1.435363     -7.899125     -.551351 
 50            250          -3.239484     -8.179516     -2.03169 
 60            250          -5.686778     -8.444861     -3.840155
 70            250          -9.20298      -8.662697     -5.914142
 80            250          -15.23358     -8.805671     -7.915034
 90            250          -999          -8.855477     -8.855477
 0             260           1.957861     -13.11576      2.090832
 10            260           1.766181     -13.17447      1.903221
 20            260           1.203889     -13.32945      1.354173
 30            260           .260179      -13.56406      .436584 
 40            260          -1.093489     -13.85219     -.869279 
 50            260          -2.925775     -14.16075     -2.610683
 60            260          -5.400051     -14.45308     -4.890979
 70            260          -8.938642     -14.6933      -7.915034
 80            260          -14.98406     -14.85108     -11.90676
 90            260          -999          -14.90607     -14.90607
 0             270           2.090832     -999           2.090832
 10            270           1.897445     -999           1.897445
 20            270           1.330428     -999           1.330428
 30            270           .37945       -999           .37945  
 40            270          -.983266      -999          -.983266 
 50            270          -2.825369     -999          -2.825369
 60            270          -5.309062     -999          -5.309062
 70            270          -8.855477     -999          -8.855477
 80            270          -14.90607     -999          -14.90607
 90            270          -999          -999          -999     
 0             280           1.957861     -13.11576      2.090832
 10            280           1.766181     -13.17447      1.903221
 20            280           1.203889     -13.32945      1.354173
 30            280           .260179      -13.56406      .436584 
 40            280          -1.093489     -13.85219     -.869279 
 50            280          -2.925775     -14.16075     -2.610683
 60            280          -5.400051     -14.45308     -4.890979
 70            280          -8.938642     -14.6933      -7.915034
 80            280          -14.98406     -14.85108     -11.90676
 90            280          -999          -14.90607     -14.90607
 0             290           1.550548     -7.228134      2.090832
 10            290           1.363793     -7.281918      1.919844
 20            290           .815107      -7.423292      1.422175
 30            290          -.107691      -7.636986      .598717 
 40            290          -1.435363     -7.899125     -.551351 
 50            290          -3.239484     -8.179516     -2.03169 
 60            290          -5.686778     -8.444861     -3.840155
 70            290          -9.20298      -8.662697     -5.914142
 80            290          -15.23358     -8.805671     -7.915034
 90            290          -999          -8.855477     -8.855477
 0             300           .841445      -3.929768      2.090832
 10            300           .662269      -3.975973      1.945283
 20            300           .134442      -4.096487      1.525331
 30            300          -.756367      -4.278192      .840641 
 40            300          -2.044366     -4.500658     -.090824 
 50            300          -3.805615     -4.738177     -1.236613
 60            300          -6.211949     -4.962562     -2.532181
 70            300          -9.694248     -5.146494     -3.840155
 80            300          -15.70246     -5.267081     -4.890979
 90            300          -999          -5.309062     -5.309062
 0             310          -.224089      -1.747818      2.090832
 10            310          -.393894      -1.784653      1.976461
 20            310          -.896097      -1.879542      1.650258
 30            310          -1.747732     -2.022074      1.127563
 40            310          -2.987304     -2.196113      .436584 
 50            310          -4.696407     -2.381486     -.376198 
 60            310          -7.053098     -2.556227     -1.236613
 70            310          -10.49444     -2.6992       -2.03169 
 80            310          -16.47567     -2.792804     -2.610683
 90            310          -999          -2.825369     -2.825369
 0             320          -1.747818     -.224089       2.090832
 10            320          -1.907525     -.250824       2.009649
 20            320          -2.382374     -.318361       1.781413
 30            320          -3.192363     -.419246       1.422175
 40            320          -4.380655     -.542004       .959958 
 50            320          -6.034763     -.672383       .436584 
 60            320          -8.339308     -.794979      -.090824 
 70            320          -11.73778     -.895079      -.551351 
 80            320          -17.69084     -.960518      -.869279 
 90            320          -999          -.983266      -.983266 
 0             330          -3.929768      .841445       2.090832
 10            330          -4.079778      .824406       2.04093 
 20            330          -4.528761      .782735       1.903221
 30            330          -5.299578      .721022       1.690123
 40            330          -6.439846      .646287       1.422175
 50            330          -8.042674      .567189       1.127563
 60            330          -10.29879      .49302        .840641 
 70            330          -13.65759      .432593       .598717 
 80            330          -19.58466      .39315        .436584 
 90            330          -999           .37945        .37945  
 0             340          -7.228134      1.550548      2.090832
 10            340          -7.369918      1.541735      2.066673
 20            340          -7.797532      1.521434      2.00188 
 30            340          -8.536231      1.491839      1.903221
 40            340          -9.637327      1.456276      1.781413
 50            340          -11.19851      1.418824      1.650258
 60            340          -13.41545      1.38383       1.525331
 70            340          -16.74226      1.355391      1.422175
 80            340          -22.64842      1.336859      1.354173
 90            340          -999           1.330428      1.330428
 0             350          -13.11576      1.957861      2.090832
 10            350          -13.25167      1.954924      2.083944
 20            350          -13.66486      1.949048      2.066673
 30            350          -14.38219      1.940822      2.04093 
 40            350          -15.45742      1.931126      2.009649
 50            350          -16.99125      1.921026      1.976461
 60            350          -19.18257      1.911657      1.945283
 70            350          -22.48851      1.904077      1.919844
 80            350          -28.38107      1.899152      1.903221
 90            350          -999           1.897445      1.897445
 0             360          -999           2.090832      2.090832
 10            360          -999           2.090832      2.090832
 20            360          -999           2.090832      2.090832
 30            360          -999           2.090832      2.090832
 40            360          -999           2.090832      2.090832
 50            360          -999           2.090832      2.090832
 60            360          -999           2.090832      2.090832
 70            360          -999           2.090832      2.090832
 80            360          -999           2.090832      2.090832
 90            360          -999           2.090832      2.090832