                   ****************************************
                     MINI-NUMERICAL ELECTROMAGNETICS CODE
                                   MININEC
                   ****************************************

FREQUENCY (MHZ): 600
    WAVE LENGTH =  .499667  METERS

ENVIRONMENT (+1 FOR FREE SPACE, -1 FOR GROUND PLANE): +1

NO. OF GEO-OBJECTS: 2

WIRE NO. 1
            COORDINATES                                 END         NO. OF
   X             Y             Z          RADIUS     CONNECTION     SEGMENTS
 0             .110864       0                          0
 0             0             0             .003175      0             10

WIRE NO. 2
            COORDINATES                                 END         NO. OF
   X             Y             Z          RADIUS     CONNECTION     SEGMENTS
 0            -.110864       0                          0
 0             0             0             .003175     -1             10

                  **** ANTENNA GEOMETRY ****

WIRE NO.  1 COORDINATES                                 CONNECTION PULSE
X             Y             Z             RADIUS        END1 END2  NO.
 0             .099777       0             .003175       0    1   1
 0             .08869        0             .003175       1    1   2
 0             .077604       0             .003175       1    1   3
 0             .066518       0             .003175       1    1   4
 0             .055431       0             .003175       1    1   5
 0             .044345       0             .003175       1    1   6
 0             .033259       0             .003175       1    1   7
 0             .022172       0             .003175       1    1   8
 0             .011086       0             .003175       1    0   9

WIRE NO.  2 COORDINATES                                 CONNECTION PULSE
X             Y             Z             RADIUS        END1 END2  NO.
 0            -.099777       0             .003175       0    2  10
 0            -.08869        0             .003175       2    2  11
 0            -.077604       0             .003175       2    2  12
 0            -.066518       0             .003175       2    2  13
 0            -.055431       0             .003175       2    2  14
 0            -.044345       0             .003175       2    2  15
 0            -.033259       0             .003175       2    2  16
 0            -.022172       0             .003175       2    2  17
 0            -.011086       0             .003175       2    2  18
 0             0             0             .003175       2   -1  19

NO. OF SOURCES :  1
PULSE NO., VOLTAGE MAGNITUDE, PHASE (DEGREES): 19 , 1 , 0
NUMBER OF LOADS 38
PULSE NO.,RESISTANCE,REACTANCE:  1 ,  .003503  ,  .003503 
PULSE NO.,RESISTANCE,REACTANCE:  2 ,  .003503  ,  .003503 
PULSE NO.,RESISTANCE,REACTANCE:  3 ,  .003503  ,  .003503 
PULSE NO.,RESISTANCE,REACTANCE:  4 ,  .003503  ,  .003503 
PULSE NO.,RESISTANCE,REACTANCE:  5 ,  .003503  ,  .003503 
PULSE NO.,RESISTANCE,REACTANCE:  6 ,  .003503  ,  .003503 
PULSE NO.,RESISTANCE,REACTANCE:  7 ,  .003503  ,  .003503 
PULSE NO.,RESISTANCE,REACTANCE:  8 ,  .003503  ,  .003503 
PULSE NO.,RESISTANCE,REACTANCE:  9 ,  .003503  ,  .003503 
PULSE NO.,RESISTANCE,REACTANCE: 10 ,  .003503  ,  .003503 
PULSE NO.,RESISTANCE,REACTANCE: 11 ,  .003503  ,  .003503 
PULSE NO.,RESISTANCE,REACTANCE: 12 ,  .003503  ,  .003503 
PULSE NO.,RESISTANCE,REACTANCE: 13 ,  .003503  ,  .003503 
PULSE NO.,RESISTANCE,REACTANCE: 14 ,  .003503  ,  .003503 
PULSE NO.,RESISTANCE,REACTANCE: 15 ,  .003503  ,  .003503 
PULSE NO.,RESISTANCE,REACTANCE: 16 ,  .003503  ,  .003503 
PULSE NO.,RESISTANCE,REACTANCE: 17 ,  .003503  ,  .003503 
PULSE NO.,RESISTANCE,REACTANCE: 18 ,  .003503  ,  .003503 
PULSE NO.,RESISTANCE,REACTANCE: 19 ,  .003503  ,  .003503 
PULSE NO.,RESISTANCE,REACTANCE:  1 ,  0        ,  2.330108
PULSE NO.,RESISTANCE,REACTANCE:  2 ,  0        ,  2.330108
PULSE NO.,RESISTANCE,REACTANCE:  3 ,  0        ,  2.330108
PULSE NO.,RESISTANCE,REACTANCE:  4 ,  0        ,  2.330108
PULSE NO.,RESISTANCE,REACTANCE:  5 ,  0        ,  2.330108
PULSE NO.,RESISTANCE,REACTANCE:  6 ,  0        ,  2.330108
PULSE NO.,RESISTANCE,REACTANCE:  7 ,  0        ,  2.330108
PULSE NO.,RESISTANCE,REACTANCE:  8 ,  0        ,  2.330108
PULSE NO.,RESISTANCE,REACTANCE:  9 ,  0        ,  2.330108
PULSE NO.,RESISTANCE,REACTANCE: 10 ,  0        ,  2.330108
PULSE NO.,RESISTANCE,REACTANCE: 11 ,  0        ,  2.330108
PULSE NO.,RESISTANCE,REACTANCE: 12 ,  0        ,  2.330108
PULSE NO.,RESISTANCE,REACTANCE: 13 ,  0        ,  2.330108
PULSE NO.,RESISTANCE,REACTANCE: 14 ,  0        ,  2.330108
PULSE NO.,RESISTANCE,REACTANCE: 15 ,  0        ,  2.330108
PULSE NO.,RESISTANCE,REACTANCE: 16 ,  0        ,  2.330108
PULSE NO.,RESISTANCE,REACTANCE: 17 ,  0        ,  2.330108
PULSE NO.,RESISTANCE,REACTANCE: 18 ,  0        ,  2.330108
PULSE NO.,RESISTANCE,REACTANCE: 19 ,  0        ,  2.330108

********************    SOURCE DATA     ********************
PULSE 19      VOLTAGE = ( 1 , 0 J)
              CURRENT = ( 1.509653E-02 ,  2.874811E-04 J)
              IMPEDANCE = ( 66.21636 , -1.260949 J)
              POWER =  7.548267E-03  WATTS

********************    CURRENT DATA    ********************

WIRE NO.  1 :
PULSE         REAL          IMAGINARY     MAGNITUDE     PHASE
 NO.          (AMPS)        (AMPS)        (AMPS)        (DEGREES)
E              0             0             0             0
 1            -3.537880E-03  6.804608E-04  3.602725E-03  169.1129 
 2            -5.857526E-03  1.051985E-03  5.951242E-03  169.8185 
 3            -7.934125E-03  1.323262E-03  8.043715E-03  170.5313 
 4            -9.763338E-03  1.494952E-03  9.877128E-03  171.2945 
 5            -1.134657E-02  1.568368E-03  1.145445E-02  172.1302 
 6            -1.267064E-02  1.540752E-03  1.276398E-02  173.0669 
 7            -1.372014E-02  1.406550E-03  1.379204E-02  174.1466 
 8            -1.448093E-02  1.152190E-03  1.452670E-02  175.4508 
 9            -1.494204E-02  7.702066E-04  1.496187E-02  177.0492 
J             -1.509653E-02 -2.874811E-04  1.509927E-02 -178.9091 
WIRE NO.  2 :
PULSE         REAL          IMAGINARY     MAGNITUDE     PHASE
 NO.          (AMPS)        (AMPS)        (AMPS)        (DEGREES)
E              0             0             0             0
 10            3.537879E-03 -6.804608E-04  3.602724E-03 -10.88708 
 11            5.857524E-03 -1.051985E-03  5.951240E-03 -10.18152 
 12            7.934123E-03 -1.323262E-03  8.043713E-03 -9.468703 
 13            9.763333E-03 -1.494952E-03  9.877122E-03 -8.705461 
 14            1.134658E-02 -1.568368E-03  1.145446E-02 -7.869775 
 15            1.267065E-02 -1.540752E-03  1.276398E-02 -6.933133 
 16            1.372014E-02 -1.406550E-03  1.379205E-02 -5.853355 
 17            1.448093E-02 -1.152190E-03  1.452670E-02 -4.549214 
 18            1.494204E-02 -7.702066E-04  1.496187E-02 -2.950773 
J              1.509653E-02  2.874811E-04  1.509927E-02  1.090944 

********************     FAR FIELD      ********************

ZENITH ANGLE : INITIAL,INCREMENT,NUMBER: 0 , 10 , 10
AZIMUTH ANGLE: INITIAL,INCREMENT,NUMBER: 0 , 10 , 37

********************    PATTERN DATA    ********************
ZENITH        AZIMUTH       VERTICAL      HORIZONTAL    TOTAL
 ANGLE         ANGLE        PATTERN (DB)  PATTERN (DB)  PATTERN (DB)
 0             0            -999           2.089829      2.089829
 10            0            -999           2.089829      2.089829
 20            0            -999           2.089829      2.089829
 30            0            -999           2.089829      2.089829
 40            0            -999           2.089829      2.089829
 50            0            -999           2.089829      2.089829
 60            0            -999           2.089829      2.089829
 70            0            -999           2.089829      2.089829
 80            0            -999           2.089829      2.089829
 90            0            -999           2.089829      2.089829
 0             10           -13.11677      1.956858      2.089829
 10            10           -13.25132      1.955278      2.084298
 20            10           -13.66318      1.95073       2.068355
 30            10           -14.37925      1.94376       2.043868
 40            10           -15.45334      1.935209      2.013732
 50            10           -16.98617      1.926105      1.98154 
 60            10           -19.17668      1.917548      1.951175
 70            10           -22.48202      1.910571      1.926337
 80            10           -28.3742       1.906016      1.910085
 90            10           -999           1.904434      1.904434
 0             20           -7.229138      1.549545      2.089829
 10            20           -7.368236      1.543417      2.068355
 20            20           -7.7932        1.525766      2.006212
 30            20           -8.529367      1.498703      1.910085
 40            20           -9.628132      1.465471      1.790608
 50            20           -11.18727      1.430065      1.6615  
 60            20           -13.40253      1.396756      1.538258
 70            20           -16.72807      1.369575      1.436359
 80            20           -22.63346      1.35182       1.369133
 90            20           -999           1.345651      1.345651
 0             30           -3.930771      .840441       2.089829
 10            30           -4.07684       .827344       2.043868
 20            30           -4.521897      .789599       1.910085
 30            30           -5.288922      .731678       1.700778
 40            30           -6.425662      .660471       1.436359
 50            30           -8.025357      .584505       1.144879
 60            30           -10.27887      .512942       .860563 
 70            30           -13.63571      .454473       .620598 
 80            30           -19.56156      .416247       .459681 
 90            30           -999           .40296        .40296  
 0             40           -1.748822     -.225092       2.089829
 10            40           -1.903442     -.246741       2.013732
 20            40           -2.373179     -.309166       1.790608
 30            40           -3.178179     -.405062       1.436359
 40            40           -4.361774     -.523124       .978838 
 50            40           -6.011665     -.649286       .459681 
 60            40           -8.312667     -.768337      -.064182 
 70            40           -11.70845     -.86575       -.522022 
 80            40           -17.65983     -.929509      -.83827  
 90            40           -999          -.951685      -.951685 
 0             50           -.225092      -1.748822      2.089829
 10            50           -.388815      -1.779574      1.98154 
 20            50           -.884855      -1.868301      1.6615  
 30            50           -1.730415     -2.004757      1.144879
 40            50           -2.964207     -2.173015      .459681 
 50            50           -4.668062     -2.353141     -.347854 
 60            50           -7.020298     -2.523428     -1.203813
 70            50           -10.45823     -2.662993     -1.995483
 80            50           -16.43732     -2.754454     -2.572333
 90            50           -999          -2.786286     -2.786286
 0             60            .840441      -3.930771      2.089829
 10            60            .668161      -3.970081      1.951175
 20            60            .147369      -4.08356       1.538258
 30            60           -.736446      -4.258271      .860563 
 40            60           -2.017725     -4.474017     -.064182 
 50            60           -3.772815     -4.705378     -1.203813
 60            60           -6.173874     -4.924487     -2.494107
 70            60           -9.652107     -5.104353     -3.798014
 80            60           -15.65775     -5.222368     -4.846266
 90            60           -999          -5.263468     -5.263468
 0             70            1.549545     -7.229138      2.089829
 10            70            1.370287     -7.275425      1.926337
 20            70            .829291      -7.409108      1.436359
 30            70           -.08581       -7.615106      .620598 
 40            70           -1.406034     -7.869796     -.522022 
 50            70           -3.203276     -8.143309     -1.995483
 60            70           -5.644637     -8.40272      -3.798014
 70            70           -9.156237     -8.615954     -5.867399
 80            70           -15.18392     -8.756004     -7.865367
 90            70           -999          -8.804806     -8.804806
 0             80            1.956858     -13.11677      2.089829
 10            80            1.773045     -13.16761      1.910085
 20            80            1.218849     -13.31449      1.369133
 30            80            .283276      -13.54096      .459681 
 40            80           -1.06248      -13.82118     -.83827  
 50            80           -2.887425     -14.1224      -2.572333
 60            80           -5.355338     -14.40836     -4.846266
 70            80           -8.888975     -14.64363     -7.865367
 80            80           -14.93123     -14.79826     -11.85394
 90            80           -999          -14.85216     -14.85216
 0             90            2.089829     -999           2.089829
 10            90            1.904434     -999           1.904434
 20            90            1.345651     -999           1.345651
 30            90            .40296       -999           .40296  
 40            90           -.951685      -999          -.951685 
 50            90           -2.786286     -999          -2.786286
 60            90           -5.263468     -999          -5.263468
 70            90           -8.804806     -999          -8.804806
 80            90           -14.85216     -999          -14.85216
 90            90           -999          -999          -999     
 0             100           1.956858     -13.11677      2.089829
 10            100           1.773045     -13.16761      1.910085
 20            100           1.218849     -13.31449      1.369133
 30            100           .283276      -13.54096      .459681 
 40            100          -1.06248      -13.82118     -.83827  
 50            100          -2.887425     -14.1224      -2.572333
 60            100          -5.355338     -14.40836     -4.846266
 70            100          -8.888975     -14.64363     -7.865367
 80            100          -14.93123     -14.79826     -11.85394
 90            100          -999          -14.85216     -14.85216
 0             110           1.549545     -7.229138      2.089829
 10            110           1.370287     -7.275425      1.926337
 20            110           .829291      -7.409108      1.436359
 30            110          -.08581       -7.615106      .620598 
 40            110          -1.406034     -7.869796     -.522022 
 50            110          -3.203276     -8.143309     -1.995483
 60            110          -5.644637     -8.40272      -3.798014
 70            110          -9.156237     -8.615954     -5.867399
 80            110          -15.18392     -8.756004     -7.865367
 90            110          -999          -8.804806     -8.804806
 0             120           .840441      -3.930771      2.089829
 10            120           .668161      -3.970081      1.951175
 20            120           .147369      -4.08356       1.538258
 30            120          -.736446      -4.258271      .860563 
 40            120          -2.017725     -4.474017     -.064182 
 50            120          -3.772815     -4.705378     -1.203813
 60            120          -6.173874     -4.924487     -2.494107
 70            120          -9.652107     -5.104353     -3.798014
 80            120          -15.65775     -5.222368     -4.846266
 90            120          -999          -5.263468     -5.263468
 0             130          -.225092      -1.748822      2.089829
 10            130          -.388815      -1.779574      1.98154 
 20            130          -.884855      -1.868301      1.6615  
 30            130          -1.730415     -2.004757      1.144879
 40            130          -2.964207     -2.173015      .459681 
 50            130          -4.668062     -2.353141     -.347854 
 60            130          -7.020298     -2.523428     -1.203813
 70            130          -10.45823     -2.662993     -1.995483
 80            130          -16.43732     -2.754454     -2.572333
 90            130          -999          -2.786286     -2.786286
 0             140          -1.748822     -.225092       2.089829
 10            140          -1.903442     -.246741       2.013732
 20            140          -2.373179     -.309166       1.790608
 30            140          -3.178179     -.405062       1.436359
 40            140          -4.361774     -.523124       .978838 
 50            140          -6.011665     -.649286       .459681 
 60            140          -8.312667     -.768337      -.064182 
 70            140          -11.70845     -.86575       -.522022 
 80            140          -17.65983     -.929509      -.83827  
 90            140          -999          -.951685      -.951685 
 0             150          -3.930771      .840441       2.089829
 10            150          -4.07684       .827344       2.043868
 20            150          -4.521897      .789599       1.910085
 30            150          -5.288922      .731678       1.700778
 40            150          -6.425662      .660471       1.436359
 50            150          -8.025357      .584505       1.144879
 60            150          -10.27887      .512942       .860563 
 70            150          -13.63571      .454473       .620598 
 80            150          -19.56156      .416247       .459681 
 90            150          -999           .40296        .40296  
 0             160          -7.229138      1.549545      2.089829
 10            160          -7.368236      1.543417      2.068355
 20            160          -7.7932        1.525766      2.006212
 30            160          -8.529367      1.498703      1.910085
 40            160          -9.628132      1.465471      1.790608
 50            160          -11.18727      1.430065      1.6615  
 60            160          -13.40253      1.396756      1.538258
 70            160          -16.72807      1.369575      1.436359
 80            160          -22.63346      1.35182       1.369133
 90            160          -999           1.345651      1.345651
 0             170          -13.11677      1.956858      2.089829
 10            170          -13.25132      1.955278      2.084298
 20            170          -13.66318      1.95073       2.068355
 30            170          -14.37925      1.94376       2.043868
 40            170          -15.45334      1.935209      2.013732
 50            170          -16.98617      1.926105      1.98154 
 60            170          -19.17668      1.917548      1.951175
 70            170          -22.48202      1.910571      1.926337
 80            170          -28.3742       1.906016      1.910085
 90            170          -999           1.904434      1.904434
 0             180          -999           2.089829      2.089829
 10            180          -999           2.089829      2.089829
 20            180          -999           2.089829      2.089829
 30            180          -999           2.089829      2.089829
 40            180          -999           2.089829      2.089829
 50            180          -999           2.089829      2.089829
 60            180          -999           2.089829      2.089829
 70            180          -999           2.089829      2.089829
 80            180          -999           2.089829      2.089829
 90            180          -999           2.089829      2.089829
 0             190          -13.11677      1.956858      2.089829
 10            190          -13.25132      1.955278      2.084298
 20            190          -13.66318      1.95073       2.068355
 30            190          -14.37925      1.94376       2.043868
 40            190          -15.45334      1.935209      2.013732
 50            190          -16.98617      1.926105      1.98154 
 60            190          -19.17668      1.917548      1.951175
 70            190          -22.48202      1.910571      1.926337
 80            190          -28.3742       1.906016      1.910085
 90            190          -999           1.904434      1.904434
 0             200          -7.229138      1.549545      2.089829
 10            200          -7.368236      1.543417      2.068355
 20            200          -7.7932        1.525766      2.006212
 30            200          -8.529367      1.498703      1.910085
 40            200          -9.628132      1.465471      1.790608
 50            200          -11.18727      1.430065      1.6615  
 60            200          -13.40253      1.396756      1.538258
 70            200          -16.72807      1.369575      1.436359
 80            200          -22.63346      1.35182       1.369133
 90            200          -999           1.345651      1.345651
 0             210          -3.930771      .840441       2.089829
 10            210          -4.07684       .827344       2.043868
 20            210          -4.521897      .789599       1.910085
 30            210          -5.288922      .731678       1.700778
 40            210          -6.425662      .660471       1.436359
 50            210          -8.025357      .584505       1.144879
 60            210          -10.27887      .512942       .860563 
 70            210          -13.63571      .454473       .620598 
 80            210          -19.56156      .416247       .459681 
 90            210          -999           .40296        .40296  
 0             220          -1.748822     -.225092       2.089829
 10            220          -1.903442     -.246741       2.013732
 20            220          -2.373179     -.309166       1.790608
 30            220          -3.178179     -.405062       1.436359
 40            220          -4.361774     -.523124       .978838 
 50            220          -6.011665     -.649286       .459681 
 60            220          -8.312667     -.768337      -.064182 
 70            220          -11.70845     -.86575       -.522022 
 80            220          -17.65983     -.929509      -.83827  
 90            220          -999          -.951685      -.951685 
 0             230          -.225092      -1.748822      2.089829
 10            230          -.388815      -1.779574      1.98154 
 20            230          -.884855      -1.868301      1.6615  
 30            230          -1.730415     -2.004757      1.144879
 40            230          -2.964207     -2.173015      .459681 
 50            230          -4.668062     -2.353141     -.347854 
 60            230          -7.020298     -2.523428     -1.203813
 70            230          -10.45823     -2.662993     -1.995483
 80            230          -16.43732     -2.754454     -2.572333
 90            230          -999          -2.786286     -2.786286
 0             240           .840441      -3.930771      2.089829
 10            240           .668161      -3.970081      1.951175
 20            240           .147369      -4.08356       1.538258
 30            240          -.736446      -4.258271      .860563 
 40            240          -2.017725     -4.474017     -.064182 
 50            240          -3.772815     -4.705378     -1.203813
 60            240          -6.173874     -4.924487     -2.494107
 70            240          -9.652107     -5.104353     -3.798014
 80            240          -15.65775     -5.222368     -4.846266
 90            240          -999          -5.263468     -5.263468
 0             250           1.549545     -7.229138      2.089829
 10            250           1.370287     -7.275425      1.926337
 20            250           .829291      -7.409108      1.436359
 30            250          -.08581       -7.615106      .620598 
 40            250          -1.406034     -7.869796     -.522022 
 50            250          -3.203276     -8.143309     -1.995483
 60            250          -5.644637     -8.40272      -3.798014
 70            250          -9.156237     -8.615954     -5.867399
 80            250          -15.18392     -8.756004     -7.865367
 90            250          -999          -8.804806     -8.804806
 0             260           1.956858     -13.11677      2.089829
 10            260           1.773045     -13.16761      1.910085
 20            260           1.218849     -13.31449      1.369133
 30            260           .283276      -13.54096      .459681 
 40            260          -1.06248      -13.82118     -.83827  
 50            260          -2.887425     -14.1224      -2.572333
 60            260          -5.355338     -14.40836     -4.846266
 70            260          -8.888975     -14.64363     -7.865367
 80            260          -14.93123     -14.79826     -11.85394
 90            260          -999          -14.85216     -14.85216
 0             270           2.089829     -999           2.089829
 10            270           1.904434     -999           1.904434
 20            270           1.345651     -999           1.345651
 30            270           .40296       -999           .40296  
 40            270          -.951685      -999          -.951685 
 50            270          -2.786286     -999          -2.786286
 60            270          -5.263468     -999          -5.263468
 70            270          -8.804806     -999          -8.804806
 80            270          -14.85216     -999          -14.85216
 90            270          -999          -999          -999     
 0             280           1.956858     -13.11677      2.089829
 10            280           1.773045     -13.16761      1.910085
 20            280           1.218849     -13.31449      1.369133
 30            280           .283276      -13.54096      .459681 
 40            280          -1.06248      -13.82118     -.83827  
 50            280          -2.887425     -14.1224      -2.572333
 60            280          -5.355338     -14.40836     -4.846266
 70            280          -8.888975     -14.64363     -7.865367
 80            280          -14.93123     -14.79826     -11.85394
 90            280          -999          -14.85216     -14.85216
 0             290           1.549545     -7.229138      2.089829
 10            290           1.370287     -7.275425      1.926337
 20            290           .829291      -7.409108      1.436359
 30            290          -.08581       -7.615106      .620598 
 40            290          -1.406034     -7.869796     -.522022 
 50            290          -3.203276     -8.143309     -1.995483
 60            290          -5.644637     -8.40272      -3.798014
 70            290          -9.156237     -8.615954     -5.867399
 80            290          -15.18392     -8.756004     -7.865367
 90            290          -999          -8.804806     -8.804806
 0             300           .840441      -3.930771      2.089829
 10            300           .668161      -3.970081      1.951175
 20            300           .147369      -4.08356       1.538258
 30            300          -.736446      -4.258271      .860563 
 40            300          -2.017725     -4.474017     -.064182 
 50            300          -3.772815     -4.705378     -1.203813
 60            300          -6.173874     -4.924487     -2.494107
 70            300          -9.652107     -5.104353     -3.798014
 80            300          -15.65775     -5.222368     -4.846266
 90            300          -999          -5.263468     -5.263468
 0             310          -.225092      -1.748822      2.089829
 10            310          -.388815      -1.779574      1.98154 
 20            310          -.884855      -1.868301      1.6615  
 30            310          -1.730415     -2.004757      1.144879
 40            310          -2.964207     -2.173015      .459681 
 50            310          -4.668062     -2.353141     -.347854 
 60            310          -7.020298     -2.523428     -1.203813
 70            310          -10.45823     -2.662993     -1.995483
 80            310          -16.43732     -2.754454     -2.572333
 90            310          -999          -2.786286     -2.786286
 0             320          -1.748822     -.225092       2.089829
 10            320          -1.903442     -.246741       2.013732
 20            320          -2.373179     -.309166       1.790608
 30            320          -3.178179     -.405062       1.436359
 40            320          -4.361774     -.523124       .978838 
 50            320          -6.011665     -.649286       .459681 
 60            320          -8.312667     -.768337      -.064182 
 70            320          -11.70845     -.86575       -.522022 
 80            320          -17.65983     -.929509      -.83827  
 90            320          -999          -.951685      -.951685 
 0             330          -3.930771      .840441       2.089829
 10            330          -4.07684       .827344       2.043868
 20            330          -4.521897      .789599       1.910085
 30            330          -5.288922      .731678       1.700778
 40            330          -6.425662      .660471       1.436359
 50            330          -8.025357      .584505       1.144879
 60            330          -10.27887      .512942       .860563 
 70            330          -13.63571      .454473       .620598 
 80            330          -19.56156      .416247       .459681 
 90            330          -999           .40296        .40296  
 0             340          -7.229138      1.549545      2.089829
 10            340          -7.368236      1.543417      2.068355
 20            340          -7.7932        1.525766      2.006212
 30            340          -8.529367      1.498703      1.910085
 40            340          -9.628132      1.465471      1.790608
 50            340          -11.18727      1.430065      1.6615  
 60            340          -13.40253      1.396756      1.538258
 70            340          -16.72807      1.369575      1.436359
 80            340          -22.63346      1.35182       1.369133
 90            340          -999           1.345651      1.345651
 0             350          -13.11677      1.956858      2.089829
 10            350          -13.25132      1.955278      2.084298
 20            350          -13.66318      1.95073       2.068355
 30            350          -14.37925      1.94376       2.043868
 40            350          -15.45334      1.935209      2.013732
 50            350          -16.98617      1.926105      1.98154 
 60            350          -19.17668      1.917548      1.951175
 70            350          -22.48202      1.910571      1.926337
 80            350          -28.3742       1.906016      1.910085
 90            350          -999           1.904434      1.904434
 0             360          -999           2.089829      2.089829
 10            360          -999           2.089829      2.089829
 20            360          -999           2.089829      2.089829
 30            360          -999           2.089829      2.089829
 40            360          -999           2.089829      2.089829
 50            360          -999           2.089829      2.089829
 60            360          -999           2.089829      2.089829
 70            360          -999           2.089829      2.089829
 80            360          -999           2.089829      2.089829
 90            360          -999           2.089829      2.089829
