                   ****************************************
                     MINI-NUMERICAL ELECTROMAGNETICS CODE
                                   MININEC
                   ****************************************

FREQUENCY (MHZ): 600
    WAVE LENGTH =  .499667  METERS

ENVIRONMENT (+1 FOR FREE SPACE, -1 FOR GROUND PLANE): +1

NO. OF WIRES: 2

WIRE NO. 1
            COORDINATES                                 END         NO. OF
   X             Y             Z          RADIUS     CONNECTION     SEGMENTS
 0             .110864       0                          0
 0             0             0             .004195      0             10

WIRE NO. 2
            COORDINATES                                 END         NO. OF
   X             Y             Z          RADIUS     CONNECTION     SEGMENTS
 0            -.110864       0                          0
 0             0             0             .003175     -1             10

                  **** ANTENNA GEOMETRY ****

WIRE NO.  1  COORDINATES                                CONNECTION PULSE
X             Y             Z             RADIUS        END1 END2  NO.
 0             .099777       0             .004195       0    1   1
 0             .08869        0             .004195       1    1   2
 0             .077604       0             .004195       1    1   3
 0             .066518       0             .004195       1    1   4
 0             .055431       0             .004195       1    1   5
 0             .044345       0             .004195       1    1   6
 0             .033259       0             .004195       1    1   7
 0             .022172       0             .004195       1    1   8
 0             .011086       0             .004195       1    0   9

WIRE NO.  2  COORDINATES                                CONNECTION PULSE
X             Y             Z             RADIUS        END1 END2  NO.
 0            -.099777       0             .003175       0    2  10
 0            -.08869        0             .003175       2    2  11
 0            -.077604       0             .003175       2    2  12
 0            -.066518       0             .003175       2    2  13
 0            -.055431       0             .003175       2    2  14
 0            -.044345       0             .003175       2    2  15
 0            -.033259       0             .003175       2    2  16
 0            -.022172       0             .003175       2    2  17
 0            -.011086       0             .003175       2    2  18
 0             0             0             .003175       2   -1  19

NO. OF SOURCES :  1
PULSE NO., VOLTAGE MAGNITUDE, PHASE (DEGREES): 19 , 1 , 0
NUMBER OF LOADS 18
PULSE NO.,RESISTANCE,REACTANCE:  1 ,  .003503  ,  .003503 
PULSE NO.,RESISTANCE,REACTANCE:  2 ,  .003503  ,  .003503 
PULSE NO.,RESISTANCE,REACTANCE:  3 ,  .003503  ,  .003503 
PULSE NO.,RESISTANCE,REACTANCE:  4 ,  .003503  ,  .003503 
PULSE NO.,RESISTANCE,REACTANCE:  5 ,  .003503  ,  .003503 
PULSE NO.,RESISTANCE,REACTANCE:  6 ,  .003503  ,  .003503 
PULSE NO.,RESISTANCE,REACTANCE:  7 ,  .003503  ,  .003503 
PULSE NO.,RESISTANCE,REACTANCE:  8 ,  .003503  ,  .003503 
PULSE NO.,RESISTANCE,REACTANCE:  9 ,  .003503  ,  .003503 
PULSE NO.,RESISTANCE,REACTANCE:  1 ,  0        ,  2.330108
PULSE NO.,RESISTANCE,REACTANCE:  2 ,  0        ,  2.330108
PULSE NO.,RESISTANCE,REACTANCE:  3 ,  0        ,  2.330108
PULSE NO.,RESISTANCE,REACTANCE:  4 ,  0        ,  2.330108
PULSE NO.,RESISTANCE,REACTANCE:  5 ,  0        ,  2.330108
PULSE NO.,RESISTANCE,REACTANCE:  6 ,  0        ,  2.330108
PULSE NO.,RESISTANCE,REACTANCE:  7 ,  0        ,  2.330108
PULSE NO.,RESISTANCE,REACTANCE:  8 ,  0        ,  2.330108
PULSE NO.,RESISTANCE,REACTANCE:  9 ,  0        ,  2.330108

********************    SOURCE DATA     ********************
PULSE 19      VOLTAGE = ( 1 , 0 J)
              CURRENT = ( 1.497338E-02 ,  3.365691E-03 J)
              IMPEDANCE = ( 63.57315 , -14.28987 J)
              POWER =  7.486689E-03  WATTS

********************    CURRENT DATA    ********************

WIRE NO.  1 :
PULSE         REAL          IMAGINARY     MAGNITUDE     PHASE
 NO.          (AMPS)        (AMPS)        (AMPS)        (DEGREES)
E              0             0             0             0
 1            -3.624265E-03 -5.176405E-05  3.624635E-03 -179.1817 
 2            -5.985807E-03 -1.586578E-04  5.987909E-03 -178.4817 
 3            -8.087977E-03 -3.142779E-04  8.094081E-03 -177.7748 
 4            -9.926820E-03 -5.170837E-04  9.940278E-03 -177.0182 
 5            -1.150428E-02 -7.660641E-04  1.152976E-02 -176.1903 
 6            -1.280728E-02 -1.061225E-03  1.285117E-02 -175.2632 
 7            -1.382032E-02 -1.404834E-03  1.389153E-02 -174.1958 
 8            -1.452885E-02 -1.807408E-03  1.464084E-02 -172.9088 
 9            -1.492080E-02 -2.270882E-03  1.509262E-02 -171.3462 
J             -1.497338E-02 -3.365691E-03  1.534698E-02 -167.3317 
WIRE NO.  2 :
PULSE         REAL          IMAGINARY     MAGNITUDE     PHASE
 NO.          (AMPS)        (AMPS)        (AMPS)        (DEGREES)
E              0             0             0             0
 10            3.532187E-03  5.235963E-05  3.532575E-03  .849266  
 11            5.763663E-03  1.583327E-04  5.765837E-03  1.573568 
 12            7.790721E-03  3.121457E-04  7.796971E-03  2.294405 
 13            9.575284E-03  5.127348E-04  9.589002E-03  3.065132 
 14            1.112590E-02  7.595367E-04  1.115180E-02  3.905376 
 15            1.243167E-02  1.053129E-03  1.247620E-02  4.842157 
 16            1.347977E-02  1.396177E-03  1.355188E-02  5.913364 
 17            1.425818E-02  1.802148E-03  1.437162E-02  7.203643 
 18            1.475794E-02  2.259032E-03  1.492984E-02  8.702844 
J              1.497338E-02  3.365691E-03  1.534698E-02  12.66829 


