                   ****************************************
                     MINI-NUMERICAL ELECTROMAGNETICS CODE
                                   MININEC
                   ****************************************

FREQUENCY (MHZ): 299.8
    WAVE LENGTH =  1  METERS

ENVIRONMENT (+1 FOR FREE SPACE, -1 FOR GROUND PLANE): +1

NO. OF WIRES: 1

WIRE NO. 1
            COORDINATES                                 END         NO. OF
   X             Y             Z          RADIUS     CONNECTION     SEGMENTS
 0             0             0                          0
 0             .5            0             .000066      0             50

                  **** ANTENNA GEOMETRY ****

WIRE NO.  1  COORDINATES                                CONNECTION PULSE
X             Y             Z             RADIUS        END1 END2  NO.
 0             .01           0             .000066       0    1   1
 0             .02           0             .000066       1    1   2
 0             .03           0             .000066       1    1   3
 0             .04           0             .000066       1    1   4
 0             .05           0             .000066       1    1   5
 0             .06           0             .000066       1    1   6
 0             .07           0             .000066       1    1   7
 0             .08           0             .000066       1    1   8
 0             .09           0             .000066       1    1   9
 0             .1            0             .000066       1    1  10
 0             .11           0             .000066       1    1  11
 0             .12           0             .000066       1    1  12
 0             .13           0             .000066       1    1  13
 0             .14           0             .000066       1    1  14
 0             .15           0             .000066       1    1  15
 0             .16           0             .000066       1    1  16
 0             .17           0             .000066       1    1  17
 0             .18           0             .000066       1    1  18
 0             .19           0             .000066       1    1  19
 0             .2            0             .000066       1    1  20
 0             .21           0             .000066       1    1  21
 0             .22           0             .000066       1    1  22
 0             .23           0             .000066       1    1  23
 0             .24           0             .000066       1    1  24
 0             .25           0             .000066       1    1  25
 0             .26           0             .000066       1    1  26
 0             .27           0             .000066       1    1  27
 0             .28           0             .000066       1    1  28
 0             .29           0             .000066       1    1  29
 0             .3            0             .000066       1    1  30
 0             .31           0             .000066       1    1  31
 0             .32           0             .000066       1    1  32
 0             .33           0             .000066       1    1  33
 0             .34           0             .000066       1    1  34
 0             .35           0             .000066       1    1  35
 0             .36           0             .000066       1    1  36
 0             .37           0             .000066       1    1  37
 0             .38           0             .000066       1    1  38
 0             .39           0             .000066       1    1  39
 0             .4            0             .000066       1    1  40
 0             .41           0             .000066       1    1  41
 0             .42           0             .000066       1    1  42
 0             .43           0             .000066       1    1  43
 0             .44           0             .000066       1    1  44
 0             .45           0             .000066       1    1  45
 0             .46           0             .000066       1    1  46
 0             .47           0             .000066       1    1  47
 0             .48           0             .000066       1    1  48
 0             .49           0             .000066       1    0  49

NO. OF SOURCES :  1
PULSE NO., VOLTAGE MAGNITUDE, PHASE (DEGREES): 25 , 1 , 0
NUMBER OF LOADS 49
PULSE NO.,RESISTANCE,REACTANCE:  1 ,  .605087  ,  .515859 
PULSE NO.,RESISTANCE,REACTANCE:  2 ,  .605087  ,  .515859 
PULSE NO.,RESISTANCE,REACTANCE:  3 ,  .605087  ,  .515859 
PULSE NO.,RESISTANCE,REACTANCE:  4 ,  .605087  ,  .515859 
PULSE NO.,RESISTANCE,REACTANCE:  5 ,  .605087  ,  .515859 
PULSE NO.,RESISTANCE,REACTANCE:  6 ,  .605087  ,  .515859 
PULSE NO.,RESISTANCE,REACTANCE:  7 ,  .605087  ,  .515859 
PULSE NO.,RESISTANCE,REACTANCE:  8 ,  .605087  ,  .515859 
PULSE NO.,RESISTANCE,REACTANCE:  9 ,  .605087  ,  .515859 
PULSE NO.,RESISTANCE,REACTANCE: 10 ,  .605087  ,  .515859 
PULSE NO.,RESISTANCE,REACTANCE: 11 ,  .605087  ,  .515859 
PULSE NO.,RESISTANCE,REACTANCE: 12 ,  .605087  ,  .515859 
PULSE NO.,RESISTANCE,REACTANCE: 13 ,  .605087  ,  .515859 
PULSE NO.,RESISTANCE,REACTANCE: 14 ,  .605087  ,  .515859 
PULSE NO.,RESISTANCE,REACTANCE: 15 ,  .605087  ,  .515859 
PULSE NO.,RESISTANCE,REACTANCE: 16 ,  .605087  ,  .515859 
PULSE NO.,RESISTANCE,REACTANCE: 17 ,  .605087  ,  .515859 
PULSE NO.,RESISTANCE,REACTANCE: 18 ,  .605087  ,  .515859 
PULSE NO.,RESISTANCE,REACTANCE: 19 ,  .605087  ,  .515859 
PULSE NO.,RESISTANCE,REACTANCE: 20 ,  .605087  ,  .515859 
PULSE NO.,RESISTANCE,REACTANCE: 21 ,  .605087  ,  .515859 
PULSE NO.,RESISTANCE,REACTANCE: 22 ,  .605087  ,  .515859 
PULSE NO.,RESISTANCE,REACTANCE: 23 ,  .605087  ,  .515859 
PULSE NO.,RESISTANCE,REACTANCE: 24 ,  .605087  ,  .515859 
PULSE NO.,RESISTANCE,REACTANCE: 25 ,  .605087  ,  .515859 
PULSE NO.,RESISTANCE,REACTANCE: 26 ,  .605087  ,  .515859 
PULSE NO.,RESISTANCE,REACTANCE: 27 ,  .605087  ,  .515859 
PULSE NO.,RESISTANCE,REACTANCE: 28 ,  .605087  ,  .515859 
PULSE NO.,RESISTANCE,REACTANCE: 29 ,  .605087  ,  .515859 
PULSE NO.,RESISTANCE,REACTANCE: 30 ,  .605087  ,  .515859 
PULSE NO.,RESISTANCE,REACTANCE: 31 ,  .605087  ,  .515859 
PULSE NO.,RESISTANCE,REACTANCE: 32 ,  .605087  ,  .515859 
PULSE NO.,RESISTANCE,REACTANCE: 33 ,  .605087  ,  .515859 
PULSE NO.,RESISTANCE,REACTANCE: 34 ,  .605087  ,  .515859 
PULSE NO.,RESISTANCE,REACTANCE: 35 ,  .605087  ,  .515859 
PULSE NO.,RESISTANCE,REACTANCE: 36 ,  .605087  ,  .515859 
PULSE NO.,RESISTANCE,REACTANCE: 37 ,  .605087  ,  .515859 
PULSE NO.,RESISTANCE,REACTANCE: 38 ,  .605087  ,  .515859 
PULSE NO.,RESISTANCE,REACTANCE: 39 ,  .605087  ,  .515859 
PULSE NO.,RESISTANCE,REACTANCE: 40 ,  .605087  ,  .515859 
PULSE NO.,RESISTANCE,REACTANCE: 41 ,  .605087  ,  .515859 
PULSE NO.,RESISTANCE,REACTANCE: 42 ,  .605087  ,  .515859 
PULSE NO.,RESISTANCE,REACTANCE: 43 ,  .605087  ,  .515859 
PULSE NO.,RESISTANCE,REACTANCE: 44 ,  .605087  ,  .515859 
PULSE NO.,RESISTANCE,REACTANCE: 45 ,  .605087  ,  .515859 
PULSE NO.,RESISTANCE,REACTANCE: 46 ,  .605087  ,  .515859 
PULSE NO.,RESISTANCE,REACTANCE: 47 ,  .605087  ,  .515859 
PULSE NO.,RESISTANCE,REACTANCE: 48 ,  .605087  ,  .515859 
PULSE NO.,RESISTANCE,REACTANCE: 49 ,  .605087  ,  .515859 

********************    SOURCE DATA     ********************
PULSE 25      VOLTAGE = ( 1 , 0 J)
              CURRENT = ( 7.785807E-03 , -4.462761E-03 J)
              IMPEDANCE = ( 96.67604 ,  55.41392 J)
              POWER =  3.892903E-03  WATTS

********************    CURRENT DATA    ********************

WIRE NO.  1 :
PULSE         REAL          IMAGINARY     MAGNITUDE     PHASE
 NO.          (AMPS)        (AMPS)        (AMPS)        (DEGREES)
E              0             0             0             0
 1             5.875836E-04 -4.182528E-04  7.212419E-04 -35.44396 
 2             1.114634E-03 -7.897494E-04  1.366057E-03 -35.31865 
 3             1.618725E-03 -1.141456E-03  1.980705E-03 -35.18987 
 4             2.106204E-03 -1.477897E-03  2.572990E-03 -35.05686 
 5             2.578902E-03 -1.800350E-03  3.145154E-03 -34.91918 
 6             3.037071E-03 -2.108966E-03  3.697505E-03 -34.77642 
 7             3.480267E-03 -2.403402E-03  4.229492E-03 -34.62817 
 8             3.907691E-03 -2.683070E-03  4.740139E-03 -34.47399 
 9             4.318358E-03 -2.947261E-03  5.228247E-03 -34.31338 
 10            4.711187E-03 -3.195208E-03  5.692507E-03 -34.14579 
 11            5.085058E-03 -3.426122E-03  6.131568E-03 -33.97062 
 12            5.438843E-03 -3.639224E-03  6.544079E-03 -33.78717 
 13            5.771434E-03 -3.833755E-03  6.928718E-03 -33.59465 
 14            6.081758E-03 -4.008988E-03  7.284213E-03 -33.39217 
 15            6.368793E-03 -4.164237E-03  7.609362E-03 -33.17868 
 16            6.631578E-03 -4.298856E-03  7.903037E-03 -32.95293 
 17            6.869221E-03 -4.412246E-03  8.164197E-03 -32.71349 
 18            7.080908E-03 -4.503841E-03  8.391891E-03 -32.45857 
 19            7.265904E-03 -4.573103E-03  8.585256E-03 -32.18599 
 20            7.423564E-03 -4.619493E-03  8.743513E-03 -31.89294 
 21            7.553335E-03 -4.642420E-03  8.865943E-03 -31.57566 
 22            7.654757E-03 -4.641128E-03  8.951836E-03 -31.2287  
 23            7.727468E-03 -4.614395E-03  9.000356E-03 -30.8432  
 24            7.771206E-03 -4.559516E-03  9.010040E-03 -30.40097 
 25            7.785807E-03 -4.462761E-03  8.974130E-03 -29.82098 
 26            7.771206E-03 -4.559516E-03  9.010040E-03 -30.40097 
 27            7.727468E-03 -4.614395E-03  9.000356E-03 -30.8432  
 28            7.654757E-03 -4.641128E-03  8.951836E-03 -31.2287  
 29            7.553335E-03 -4.642420E-03  8.865943E-03 -31.57566 
 30            7.423564E-03 -4.619493E-03  8.743513E-03 -31.89294 
 31            7.265904E-03 -4.573103E-03  8.585256E-03 -32.18599 
 32            7.080908E-03 -4.503841E-03  8.391891E-03 -32.45857 
 33            6.869221E-03 -4.412246E-03  8.164197E-03 -32.71349 
 34            6.631578E-03 -4.298856E-03  7.903037E-03 -32.95293 
 35            6.368793E-03 -4.164237E-03  7.609362E-03 -33.17868 
 36            6.081758E-03 -4.008988E-03  7.284213E-03 -33.39217 
 37            5.771434E-03 -3.833755E-03  6.928718E-03 -33.59465 
 38            5.438843E-03 -3.639224E-03  6.544079E-03 -33.78717 
 39            5.085058E-03 -3.426122E-03  6.131568E-03 -33.97062 
 40            4.711187E-03 -3.195208E-03  5.692507E-03 -34.14579 
 41            4.318358E-03 -2.947261E-03  5.228247E-03 -34.31338 
 42            3.907691E-03 -2.683070E-03  4.740139E-03 -34.47399 
 43            3.480267E-03 -2.403402E-03  4.229492E-03 -34.62817 
 44            3.037071E-03 -2.108966E-03  3.697505E-03 -34.77642 
 45            2.578902E-03 -1.800350E-03  3.145154E-03 -34.91918 
 46            2.106204E-03 -1.477897E-03  2.572990E-03 -35.05686 
 47            1.618725E-03 -1.141456E-03  1.980705E-03 -35.18987 
 48            1.114634E-03 -7.897494E-04  1.366057E-03 -35.31865 
 49            5.875836E-04 -4.182528E-04  7.212419E-04 -35.44396 
E              0             0             0             0


