                   ****************************************
                     MINI-NUMERICAL ELECTROMAGNETICS CODE
                                   MININEC
                   ****************************************

FREQUENCY (MHZ): 600
    WAVE LENGTH =  .499667  METERS

ENVIRONMENT (+1 FOR FREE SPACE, -1 FOR GROUND PLANE): +1

NO. OF GEO-OBJECTS: 1

WIRE NO. 1
            COORDINATES                                 END         NO. OF
   X             Y             Z          RADIUS     CONNECTION     SEGMENTS
-.110864       0             0                          0
 .110864       0             0             .002273      0             22

                  **** ANTENNA GEOMETRY ****

WIRE NO.  1 COORDINATES                                 CONNECTION PULSE
X             Y             Z             RADIUS        END1 END2  NO.
-.100785       0             0             .002273       0    1   1
-.090706       0             0             .002273       1    1   2
-.080628       0             0             .002273       1    1   3
-.070549       0             0             .002273       1    1   4
-.060471       0             0             .002273       1    1   5
-.050392       0             0             .002273       1    1   6
-.040314       0             0             .002273       1    1   7
-.030235       0             0             .002273       1    1   8
-.020157       0             0             .002273       1    1   9
-.010078       0             0             .002273       1    1  10
 0             0             0             .002273       1    1  11
 .010078       0             0             .002273       1    1  12
 .020157       0             0             .002273       1    1  13
 .030235       0             0             .002273       1    1  14
 .040314       0             0             .002273       1    1  15
 .050392       0             0             .002273       1    1  16
 .060471       0             0             .002273       1    1  17
 .070549       0             0             .002273       1    1  18
 .080628       0             0             .002273       1    1  19
 .090706       0             0             .002273       1    1  20
 .100785       0             0             .002273       1    0  21

NO. OF SOURCES :  1
PULSE NO., VOLTAGE MAGNITUDE, PHASE (DEGREES): 11 , 1 , 0
NUMBER OF LOADS 42
PULSE NO.,RESISTANCE,REACTANCE:  1 ,  .022613  ,  .022613 
PULSE NO.,RESISTANCE,REACTANCE:  2 ,  .022613  ,  .022613 
PULSE NO.,RESISTANCE,REACTANCE:  3 ,  .022613  ,  .022613 
PULSE NO.,RESISTANCE,REACTANCE:  4 ,  .022613  ,  .022613 
PULSE NO.,RESISTANCE,REACTANCE:  5 ,  .022613  ,  .022613 
PULSE NO.,RESISTANCE,REACTANCE:  6 ,  .022613  ,  .022613 
PULSE NO.,RESISTANCE,REACTANCE:  7 ,  .022613  ,  .022613 
PULSE NO.,RESISTANCE,REACTANCE:  8 ,  .022613  ,  .022613 
PULSE NO.,RESISTANCE,REACTANCE:  9 ,  .022613  ,  .022613 
PULSE NO.,RESISTANCE,REACTANCE: 10 ,  .022613  ,  .022613 
PULSE NO.,RESISTANCE,REACTANCE: 11 ,  .022613  ,  .022613 
PULSE NO.,RESISTANCE,REACTANCE: 12 ,  .022613  ,  .022613 
PULSE NO.,RESISTANCE,REACTANCE: 13 ,  .022613  ,  .022613 
PULSE NO.,RESISTANCE,REACTANCE: 14 ,  .022613  ,  .022613 
PULSE NO.,RESISTANCE,REACTANCE: 15 ,  .022613  ,  .022613 
PULSE NO.,RESISTANCE,REACTANCE: 16 ,  .022613  ,  .022613 
PULSE NO.,RESISTANCE,REACTANCE: 17 ,  .022613  ,  .022613 
PULSE NO.,RESISTANCE,REACTANCE: 18 ,  .022613  ,  .022613 
PULSE NO.,RESISTANCE,REACTANCE: 19 ,  .022613  ,  .022613 
PULSE NO.,RESISTANCE,REACTANCE: 20 ,  .022613  ,  .022613 
PULSE NO.,RESISTANCE,REACTANCE: 21 ,  .022613  ,  .022613 
PULSE NO.,RESISTANCE,REACTANCE:  1 ,  0        ,  12.35844
PULSE NO.,RESISTANCE,REACTANCE:  2 ,  0        ,  12.35844
PULSE NO.,RESISTANCE,REACTANCE:  3 ,  0        ,  12.35844
PULSE NO.,RESISTANCE,REACTANCE:  4 ,  0        ,  12.35844
PULSE NO.,RESISTANCE,REACTANCE:  5 ,  0        ,  12.35844
PULSE NO.,RESISTANCE,REACTANCE:  6 ,  0        ,  12.35844
PULSE NO.,RESISTANCE,REACTANCE:  7 ,  0        ,  12.35844
PULSE NO.,RESISTANCE,REACTANCE:  8 ,  0        ,  12.35844
PULSE NO.,RESISTANCE,REACTANCE:  9 ,  0        ,  12.35844
PULSE NO.,RESISTANCE,REACTANCE: 10 ,  0        ,  12.35844
PULSE NO.,RESISTANCE,REACTANCE: 11 ,  0        ,  12.35844
PULSE NO.,RESISTANCE,REACTANCE: 12 ,  0        ,  12.35844
PULSE NO.,RESISTANCE,REACTANCE: 13 ,  0        ,  12.35844
PULSE NO.,RESISTANCE,REACTANCE: 14 ,  0        ,  12.35844
PULSE NO.,RESISTANCE,REACTANCE: 15 ,  0        ,  12.35844
PULSE NO.,RESISTANCE,REACTANCE: 16 ,  0        ,  12.35844
PULSE NO.,RESISTANCE,REACTANCE: 17 ,  0        ,  12.35844
PULSE NO.,RESISTANCE,REACTANCE: 18 ,  0        ,  12.35844
PULSE NO.,RESISTANCE,REACTANCE: 19 ,  0        ,  12.35844
PULSE NO.,RESISTANCE,REACTANCE: 20 ,  0        ,  12.35844
PULSE NO.,RESISTANCE,REACTANCE: 21 ,  0        ,  12.35844

********************    SOURCE DATA     ********************
PULSE 11      VOLTAGE = ( 1 , 0 J)
              CURRENT = ( 4.714916E-03 , -6.194131E-03 J)
              IMPEDANCE = ( 77.80686 ,  102.2173 J)
              POWER =  2.357458E-03  WATTS

********************    CURRENT DATA    ********************

WIRE NO.  1 :
PULSE         REAL          IMAGINARY     MAGNITUDE     PHASE
 NO.          (AMPS)        (AMPS)        (AMPS)        (DEGREES)
E              0             0             0             0
 1             8.418680E-04 -1.493283E-03  1.714245E-03 -60.58701 
 2             1.513075E-03 -2.638530E-03  3.041585E-03 -60.16771 
 3             2.129212E-03 -3.648641E-03  4.224467E-03 -59.73375 
 4             2.693505E-03 -4.531165E-03  5.271283E-03 -59.27107 
 5             3.201559E-03 -5.279856E-03  6.174695E-03 -58.76853 
 6             3.646674E-03 -5.884339E-03  6.922693E-03 -58.21246 
 7             4.021905E-03 -6.333564E-03  7.502649E-03 -57.58386 
 8             4.320920E-03 -6.616602E-03  7.902517E-03 -56.85377 
 9             4.538457E-03 -6.721387E-03  8.110156E-03 -55.97174 
 10            4.670595E-03 -6.629523E-03  8.109564E-03 -54.83475 
 11            4.714916E-03 -6.194131E-03  7.784452E-03 -52.72194 
 12            4.670595E-03 -6.629523E-03  8.109564E-03 -54.83475 
 13            4.538457E-03 -6.721387E-03  8.110156E-03 -55.97174 
 14            4.320920E-03 -6.616602E-03  7.902517E-03 -56.85377 
 15            4.021905E-03 -6.333564E-03  7.502649E-03 -57.58386 
 16            3.646674E-03 -5.884339E-03  6.922693E-03 -58.21246 
 17            3.201559E-03 -5.279856E-03  6.174695E-03 -58.76853 
 18            2.693505E-03 -4.531165E-03  5.271283E-03 -59.27107 
 19            2.129212E-03 -3.648641E-03  4.224467E-03 -59.73375 
 20            1.513075E-03 -2.638530E-03  3.041585E-03 -60.16771 
 21            8.418680E-04 -1.493283E-03  1.714245E-03 -60.58701 
E              0             0             0             0

********************     FAR FIELD      ********************

ZENITH ANGLE : INITIAL,INCREMENT,NUMBER: 0 , 10 , 10
AZIMUTH ANGLE: INITIAL,INCREMENT,NUMBER: 0 , 10 , 37

********************    PATTERN DATA    ********************
ZENITH        AZIMUTH       VERTICAL      HORIZONTAL    TOTAL
 ANGLE         ANGLE        PATTERN (DB)  PATTERN (DB)  PATTERN (DB)
 0             0             2.074869     -999           2.074869
 10            0             1.889207     -999           1.889207
 20            0             1.329628     -999           1.329628
 30            0             .385637      -999           .385637 
 40            0            -.970741      -999          -.970741 
 50            0            -2.807365     -999          -2.807365
 60            0            -5.286628     -999          -5.286628
 70            0            -8.829799     -999          -8.829799
 80            0            -14.87842     -999          -14.87842
 90            0            -999          -999          -999     
 0             10            1.941899     -13.13173      2.074869
 10            10            1.757827     -13.18283      1.894867
 20            10            1.202859     -13.33048      1.353144
 30            10            .26603       -13.55821      .442435 
 40            10           -1.081398     -13.8401      -.857188 
 50            10           -2.908289     -14.14326     -2.593197
 60            10           -5.378199     -14.43122     -4.869126
 70            10           -8.91359      -14.66825     -7.889983
 80            10           -14.95706     -14.82409     -11.87976
 90            10           -999          -14.87842     -14.87842
 0             20            1.534586     -7.244097      2.074869
 10            20            1.355092     -7.29062       1.911142
 20            20            .813396      -7.425003      1.420464
 30            20           -.102839      -7.632135      .603569 
 40            20           -1.42456      -7.888322     -.540549 
 50            20           -3.223533     -8.163566     -2.015739
 60            20           -5.666656     -8.424738     -3.820033
 70            20           -9.179796     -8.639512     -5.890958
 80            20           -15.20853     -8.78062      -7.889983
 90            20           -999          -8.829799     -8.829799
 0             30            .825482      -3.945731      2.074869
 10            30            .653002      -3.98524       1.936015
 20            30            .131619      -4.09931       1.522508
 30            30           -.753146      -4.274971      .843863 
 40            30           -2.035666     -4.491958     -.082123 
 50            30           -3.792173     -4.724735     -1.223171
 60            30           -6.194659     -4.945271     -2.514891
 70            30           -9.674126     -5.126372     -3.820033
 80            30           -15.68061     -5.245228     -4.869126
 90            30           -999          -5.286628     -5.286628
 0             40           -.240051      -1.763781      2.074869
 10            40           -.403931      -1.794689      1.966425
 20            40           -.90043       -1.883876      1.645925
 30            40           -1.74672      -2.021062      1.128574
 40            40           -2.981453     -2.190262      .442435 
 50            40           -4.686368     -2.371448     -.36616  
 60            40           -7.039656     -2.542786     -1.223171
 70            40           -10.47849     -2.683249     -2.015739
 80            40           -16.45818     -2.775318     -2.593197
 90            40           -999          -2.807365     -2.807365
 0             50           -1.763781     -.240051       2.074869
 10            50           -1.918511     -.26181        1.998663
 20            50           -2.388569     -.324556       1.775218
 30            50           -3.194074     -.420957       1.420464
 40            50           -4.37831      -.53966        .962302 
 50            50           -6.028912     -.666533       .442435 
 60            50           -8.330608     -.786278      -.082123 
 70            50           -11.72697     -.884277      -.540549 
 80            50           -17.67875     -.948427      -.857188 
 90            50           -999          -.970741      -.970741 
 0             60           -3.945731      .825482       2.074869
 10            60           -4.091865      .812318       2.028843
 20            60           -4.537115      .774381       1.894867
 30            60           -5.304441      .716159       1.685259
 40            60           -6.441557      .644576       1.420464
 50            60           -8.041662      .5682         1.128574
 60            60           -10.29557      .496242       .843863 
 70            60           -13.65273      .437444       .603569 
 80            60           -19.57881      .399001       .442435 
 90            60           -999           .385637       .385637 
 0             70           -7.244097      1.534586      2.074869
 10            70           -7.383226      1.528427      2.053365
 20            70           -7.80828       1.510686      1.991132
 30            70           -8.544585      1.483485      1.894867
 40            70           -9.643522      1.450081      1.775218
 50            70           -11.20284      1.414491      1.645925
 60            70           -13.41828      1.381006      1.522508
 70            70           -16.74397      1.35368       1.420464
 80            70           -22.64945      1.33583       1.353144
 90            70           -999           1.329628      1.329628
 0             80           -13.13173      1.941899      2.074869
 10            80           -13.26628      1.940311      2.069331
 20            80           -13.67817      1.93574       2.053365
 30            80           -14.39428      1.928735      2.028843
 40            80           -15.46841      1.92014       1.998663
 50            80           -17.00128      1.91099       1.966425
 60            80           -19.19184      1.902389      1.936015
 70            80           -22.49721      1.895376      1.911142
 80            80           -28.38942      1.890797      1.894867
 90            80           -999           1.889207      1.889207
 0             90           -999           2.074869      2.074869
 10            90           -999           2.074869      2.074869
 20            90           -999           2.074869      2.074869
 30            90           -999           2.074869      2.074869
 40            90           -999           2.074869      2.074869
 50            90           -999           2.074869      2.074869
 60            90           -999           2.074869      2.074869
 70            90           -999           2.074869      2.074869
 80            90           -999           2.074869      2.074869
 90            90           -999           2.074869      2.074869
 0             100          -13.13173      1.941899      2.074869
 10            100          -13.26628      1.940311      2.069331
 20            100          -13.67817      1.93574       2.053365
 30            100          -14.39428      1.928735      2.028843
 40            100          -15.46841      1.92014       1.998663
 50            100          -17.00128      1.91099       1.966425
 60            100          -19.19184      1.902389      1.936015
 70            100          -22.49721      1.895376      1.911142
 80            100          -28.38942      1.890797      1.894867
 90            100          -999           1.889207      1.889207
 0             110          -7.244097      1.534586      2.074869
 10            110          -7.383226      1.528427      2.053365
 20            110          -7.80828       1.510686      1.991132
 30            110          -8.544585      1.483485      1.894867
 40            110          -9.643522      1.450081      1.775218
 50            110          -11.20284      1.414491      1.645925
 60            110          -13.41828      1.381006      1.522508
 70            110          -16.74397      1.35368       1.420464
 80            110          -22.64945      1.33583       1.353144
 90            110          -999           1.329628      1.329628
 0             120          -3.945731      .825482       2.074869
 10            120          -4.091865      .812318       2.028843
 20            120          -4.537115      .774381       1.894867
 30            120          -5.304441      .716159       1.685259
 40            120          -6.441557      .644576       1.420464
 50            120          -8.041662      .5682         1.128574
 60            120          -10.29557      .496242       .843863 
 70            120          -13.65273      .437444       .603569 
 80            120          -19.57881      .399001       .442435 
 90            120          -999           .385637       .385637 
 0             130          -1.763781     -.240051       2.074869
 10            130          -1.918511     -.26181        1.998663
 20            130          -2.388569     -.324556       1.775218
 30            130          -3.194074     -.420957       1.420464
 40            130          -4.37831      -.53966        .962302 
 50            130          -6.028912     -.666533       .442435 
 60            130          -8.330608     -.786278      -.082123 
 70            130          -11.72697     -.884277      -.540549 
 80            130          -17.67875     -.948427      -.857188 
 90            130          -999          -.970741      -.970741 
 0             140          -.240051      -1.763781      2.074869
 10            140          -.403931      -1.794689      1.966425
 20            140          -.90043       -1.883876      1.645925
 30            140          -1.74672      -2.021062      1.128574
 40            140          -2.981453     -2.190262      .442435 
 50            140          -4.686368     -2.371448     -.36616  
 60            140          -7.039656     -2.542786     -1.223171
 70            140          -10.47849     -2.683249     -2.015739
 80            140          -16.45818     -2.775318     -2.593197
 90            140          -999          -2.807365     -2.807365
 0             150           .825482      -3.945731      2.074869
 10            150           .653002      -3.98524       1.936015
 20            150           .131619      -4.09931       1.522508
 30            150          -.753146      -4.274971      .843863 
 40            150          -2.035666     -4.491958     -.082123 
 50            150          -3.792173     -4.724735     -1.223171
 60            150          -6.194659     -4.945271     -2.514891
 70            150          -9.674126     -5.126372     -3.820033
 80            150          -15.68061     -5.245228     -4.869126
 90            150          -999          -5.286628     -5.286628
 0             160           1.534586     -7.244097      2.074869
 10            160           1.355092     -7.29062       1.911142
 20            160           .813396      -7.425003      1.420464
 30            160          -.102839      -7.632135      .603569 
 40            160          -1.42456      -7.888322     -.540549 
 50            160          -3.223533     -8.163566     -2.015739
 60            160          -5.666656     -8.424738     -3.820033
 70            160          -9.179796     -8.639512     -5.890958
 80            160          -15.20853     -8.78062      -7.889983
 90            160          -999          -8.829799     -8.829799
 0             170           1.941899     -13.13173      2.074869
 10            170           1.757827     -13.18283      1.894867
 20            170           1.202859     -13.33048      1.353144
 30            170           .26603       -13.55821      .442435 
 40            170          -1.081398     -13.8401      -.857188 
 50            170          -2.908289     -14.14326     -2.593197
 60            170          -5.378199     -14.43122     -4.869126
 70            170          -8.91359      -14.66825     -7.889983
 80            170          -14.95706     -14.82409     -11.87976
 90            170          -999          -14.87842     -14.87842
 0             180           2.074869     -999           2.074869
 10            180           1.889207     -999           1.889207
 20            180           1.329628     -999           1.329628
 30            180           .385637      -999           .385637 
 40            180          -.970741      -999          -.970741 
 50            180          -2.807365     -999          -2.807365
 60            180          -5.286628     -999          -5.286628
 70            180          -8.829799     -999          -8.829799
 80            180          -14.87842     -999          -14.87842
 90            180          -999          -999          -999     
 0             190           1.941899     -13.13173      2.074869
 10            190           1.757827     -13.18283      1.894867
 20            190           1.202859     -13.33048      1.353144
 30            190           .26603       -13.55821      .442435 
 40            190          -1.081398     -13.8401      -.857188 
 50            190          -2.908289     -14.14326     -2.593197
 60            190          -5.378199     -14.43122     -4.869126
 70            190          -8.91359      -14.66825     -7.889983
 80            190          -14.95706     -14.82409     -11.87976
 90            190          -999          -14.87842     -14.87842
 0             200           1.534586     -7.244097      2.074869
 10            200           1.355092     -7.29062       1.911142
 20            200           .813396      -7.425003      1.420464
 30            200          -.102839      -7.632135      .603569 
 40            200          -1.42456      -7.888322     -.540549 
 50            200          -3.223533     -8.163566     -2.015739
 60            200          -5.666656     -8.424738     -3.820033
 70            200          -9.179796     -8.639512     -5.890958
 80            200          -15.20853     -8.78062      -7.889983
 90            200          -999          -8.829799     -8.829799
 0             210           .825482      -3.945731      2.074869
 10            210           .653002      -3.98524       1.936015
 20            210           .131619      -4.09931       1.522508
 30            210          -.753146      -4.274971      .843863 
 40            210          -2.035666     -4.491958     -.082123 
 50            210          -3.792173     -4.724735     -1.223171
 60            210          -6.194659     -4.945271     -2.514891
 70            210          -9.674126     -5.126372     -3.820033
 80            210          -15.68061     -5.245228     -4.869126
 90            210          -999          -5.286628     -5.286628
 0             220          -.240051      -1.763781      2.074869
 10            220          -.403931      -1.794689      1.966425
 20            220          -.90043       -1.883876      1.645925
 30            220          -1.74672      -2.021062      1.128574
 40            220          -2.981453     -2.190262      .442435 
 50            220          -4.686368     -2.371448     -.36616  
 60            220          -7.039656     -2.542786     -1.223171
 70            220          -10.47849     -2.683249     -2.015739
 80            220          -16.45818     -2.775318     -2.593197
 90            220          -999          -2.807365     -2.807365
 0             230          -1.763781     -.240051       2.074869
 10            230          -1.918511     -.26181        1.998663
 20            230          -2.388569     -.324556       1.775218
 30            230          -3.194074     -.420957       1.420464
 40            230          -4.37831      -.53966        .962302 
 50            230          -6.028912     -.666533       .442435 
 60            230          -8.330608     -.786278      -.082123 
 70            230          -11.72697     -.884277      -.540549 
 80            230          -17.67875     -.948427      -.857188 
 90            230          -999          -.970741      -.970741 
 0             240          -3.945731      .825482       2.074869
 10            240          -4.091865      .812318       2.028843
 20            240          -4.537115      .774381       1.894867
 30            240          -5.304441      .716159       1.685259
 40            240          -6.441557      .644576       1.420464
 50            240          -8.041662      .5682         1.128574
 60            240          -10.29557      .496242       .843863 
 70            240          -13.65273      .437444       .603569 
 80            240          -19.57881      .399001       .442435 
 90            240          -999           .385637       .385637 
 0             250          -7.244097      1.534586      2.074869
 10            250          -7.383226      1.528427      2.053365
 20            250          -7.80828       1.510686      1.991132
 30            250          -8.544585      1.483485      1.894867
 40            250          -9.643522      1.450081      1.775218
 50            250          -11.20284      1.414491      1.645925
 60            250          -13.41828      1.381006      1.522508
 70            250          -16.74397      1.35368       1.420464
 80            250          -22.64945      1.33583       1.353144
 90            250          -999           1.329628      1.329628
 0             260          -13.13173      1.941899      2.074869
 10            260          -13.26628      1.940311      2.069331
 20            260          -13.67817      1.93574       2.053365
 30            260          -14.39428      1.928735      2.028843
 40            260          -15.46841      1.92014       1.998663
 50            260          -17.00128      1.91099       1.966425
 60            260          -19.19184      1.902389      1.936015
 70            260          -22.49721      1.895376      1.911142
 80            260          -28.38942      1.890797      1.894867
 90            260          -999           1.889207      1.889207
 0             270          -999           2.074869      2.074869
 10            270          -999           2.074869      2.074869
 20            270          -999           2.074869      2.074869
 30            270          -999           2.074869      2.074869
 40            270          -999           2.074869      2.074869
 50            270          -999           2.074869      2.074869
 60            270          -999           2.074869      2.074869
 70            270          -999           2.074869      2.074869
 80            270          -999           2.074869      2.074869
 90            270          -999           2.074869      2.074869
 0             280          -13.13173      1.941899      2.074869
 10            280          -13.26628      1.940311      2.069331
 20            280          -13.67817      1.93574       2.053365
 30            280          -14.39428      1.928735      2.028843
 40            280          -15.46841      1.92014       1.998663
 50            280          -17.00128      1.91099       1.966425
 60            280          -19.19184      1.902389      1.936015
 70            280          -22.49721      1.895376      1.911142
 80            280          -28.38942      1.890797      1.894867
 90            280          -999           1.889207      1.889207
 0             290          -7.244097      1.534586      2.074869
 10            290          -7.383226      1.528427      2.053365
 20            290          -7.80828       1.510686      1.991132
 30            290          -8.544585      1.483485      1.894867
 40            290          -9.643522      1.450081      1.775218
 50            290          -11.20284      1.414491      1.645925
 60            290          -13.41828      1.381006      1.522508
 70            290          -16.74397      1.35368       1.420464
 80            290          -22.64945      1.33583       1.353144
 90            290          -999           1.329628      1.329628
 0             300          -3.945731      .825482       2.074869
 10            300          -4.091865      .812318       2.028843
 20            300          -4.537115      .774381       1.894867
 30            300          -5.304441      .716159       1.685259
 40            300          -6.441557      .644576       1.420464
 50            300          -8.041662      .5682         1.128574
 60            300          -10.29557      .496242       .843863 
 70            300          -13.65273      .437444       .603569 
 80            300          -19.57881      .399001       .442435 
 90            300          -999           .385637       .385637 
 0             310          -1.763781     -.240051       2.074869
 10            310          -1.918511     -.26181        1.998663
 20            310          -2.388569     -.324556       1.775218
 30            310          -3.194074     -.420957       1.420464
 40            310          -4.37831      -.53966        .962302 
 50            310          -6.028912     -.666533       .442435 
 60            310          -8.330608     -.786278      -.082123 
 70            310          -11.72697     -.884277      -.540549 
 80            310          -17.67875     -.948427      -.857188 
 90            310          -999          -.970741      -.970741 
 0             320          -.240051      -1.763781      2.074869
 10            320          -.403931      -1.794689      1.966425
 20            320          -.90043       -1.883876      1.645925
 30            320          -1.74672      -2.021062      1.128574
 40            320          -2.981453     -2.190262      .442435 
 50            320          -4.686368     -2.371448     -.36616  
 60            320          -7.039656     -2.542786     -1.223171
 70            320          -10.47849     -2.683249     -2.015739
 80            320          -16.45818     -2.775318     -2.593197
 90            320          -999          -2.807365     -2.807365
 0             330           .825482      -3.945731      2.074869
 10            330           .653002      -3.98524       1.936015
 20            330           .131619      -4.09931       1.522508
 30            330          -.753146      -4.274971      .843863 
 40            330          -2.035666     -4.491958     -.082123 
 50            330          -3.792173     -4.724735     -1.223171
 60            330          -6.194659     -4.945271     -2.514891
 70            330          -9.674126     -5.126372     -3.820033
 80            330          -15.68061     -5.245228     -4.869126
 90            330          -999          -5.286628     -5.286628
 0             340           1.534586     -7.244097      2.074869
 10            340           1.355092     -7.29062       1.911142
 20            340           .813396      -7.425003      1.420464
 30            340          -.102839      -7.632135      .603569 
 40            340          -1.42456      -7.888322     -.540549 
 50            340          -3.223533     -8.163566     -2.015739
 60            340          -5.666656     -8.424738     -3.820033
 70            340          -9.179796     -8.639512     -5.890958
 80            340          -15.20853     -8.78062      -7.889983
 90            340          -999          -8.829799     -8.829799
 0             350           1.941899     -13.13173      2.074869
 10            350           1.757827     -13.18283      1.894867
 20            350           1.202859     -13.33048      1.353144
 30            350           .26603       -13.55821      .442435 
 40            350          -1.081398     -13.8401      -.857188 
 50            350          -2.908289     -14.14326     -2.593197
 60            350          -5.378199     -14.43122     -4.869126
 70            350          -8.91359      -14.66825     -7.889983
 80            350          -14.95706     -14.82409     -11.87976
 90            350          -999          -14.87842     -14.87842
 0             360           2.074869     -999           2.074869
 10            360           1.889207     -999           1.889207
 20            360           1.329628     -999           1.329628
 30            360           .385637      -999           .385637 
 40            360          -.970741      -999          -.970741 
 50            360          -2.807365     -999          -2.807365
 60            360          -5.286628     -999          -5.286628
 70            360          -8.829799     -999          -8.829799
 80            360          -14.87842     -999          -14.87842
 90            360          -999          -999          -999     
