                   ****************************************
                     MINI-NUMERICAL ELECTROMAGNETICS CODE
                                   MININEC
                   ****************************************

FREQUENCY (MHZ): 600
    WAVE LENGTH =  .499667  METERS

ENVIRONMENT (+1 FOR FREE SPACE, -1 FOR GROUND PLANE): +1

NO. OF GEO-OBJECTS: 2

WIRE NO. 1
            COORDINATES                                 END         NO. OF
   X             Y             Z          RADIUS     CONNECTION     SEGMENTS
 0             .110864       0                          0
 0             0             0             .003175      0             10

WIRE NO. 2
            COORDINATES                                 END         NO. OF
   X             Y             Z          RADIUS     CONNECTION     SEGMENTS
 0            -.110864       0                          0
 0             0             0             .003175     -1             10

                  **** ANTENNA GEOMETRY ****

WIRE NO.  1 COORDINATES                                 CONNECTION PULSE
X             Y             Z             RADIUS        END1 END2  NO.
 0             .099777       0             .003175       0    1   1
 0             .08869        0             .003175       1    1   2
 0             .077604       0             .003175       1    1   3
 0             .066518       0             .003175       1    1   4
 0             .055431       0             .003175       1    1   5
 0             .044345       0             .003175       1    1   6
 0             .033259       0             .003175       1    1   7
 0             .022172       0             .003175       1    1   8
 0             .011086       0             .003175       1    0   9

WIRE NO.  2 COORDINATES                                 CONNECTION PULSE
X             Y             Z             RADIUS        END1 END2  NO.
 0            -.099777       0             .003175       0    2  10
 0            -.08869        0             .003175       2    2  11
 0            -.077604       0             .003175       2    2  12
 0            -.066518       0             .003175       2    2  13
 0            -.055431       0             .003175       2    2  14
 0            -.044345       0             .003175       2    2  15
 0            -.033259       0             .003175       2    2  16
 0            -.022172       0             .003175       2    2  17
 0            -.011086       0             .003175       2    2  18
 0             0             0             .003175       2   -1  19

NO. OF SOURCES :  1
PULSE NO., VOLTAGE MAGNITUDE, PHASE (DEGREES): 19 , 1 , 0
NUMBER OF LOADS 38
PULSE NO.,RESISTANCE,REACTANCE:  1 ,  .003503  ,  .003503 
PULSE NO.,RESISTANCE,REACTANCE:  2 ,  .003503  ,  .003503 
PULSE NO.,RESISTANCE,REACTANCE:  3 ,  .003503  ,  .003503 
PULSE NO.,RESISTANCE,REACTANCE:  4 ,  .003503  ,  .003503 
PULSE NO.,RESISTANCE,REACTANCE:  5 ,  .003503  ,  .003503 
PULSE NO.,RESISTANCE,REACTANCE:  6 ,  .003503  ,  .003503 
PULSE NO.,RESISTANCE,REACTANCE:  7 ,  .003503  ,  .003503 
PULSE NO.,RESISTANCE,REACTANCE:  8 ,  .003503  ,  .003503 
PULSE NO.,RESISTANCE,REACTANCE:  9 ,  .003503  ,  .003503 
PULSE NO.,RESISTANCE,REACTANCE: 10 ,  .003503  ,  .003503 
PULSE NO.,RESISTANCE,REACTANCE: 11 ,  .003503  ,  .003503 
PULSE NO.,RESISTANCE,REACTANCE: 12 ,  .003503  ,  .003503 
PULSE NO.,RESISTANCE,REACTANCE: 13 ,  .003503  ,  .003503 
PULSE NO.,RESISTANCE,REACTANCE: 14 ,  .003503  ,  .003503 
PULSE NO.,RESISTANCE,REACTANCE: 15 ,  .003503  ,  .003503 
PULSE NO.,RESISTANCE,REACTANCE: 16 ,  .003503  ,  .003503 
PULSE NO.,RESISTANCE,REACTANCE: 17 ,  .003503  ,  .003503 
PULSE NO.,RESISTANCE,REACTANCE: 18 ,  .003503  ,  .003503 
PULSE NO.,RESISTANCE,REACTANCE: 19 ,  .003503  ,  .003503 
PULSE NO.,RESISTANCE,REACTANCE:  1 ,  0        ,  2.330108
PULSE NO.,RESISTANCE,REACTANCE:  2 ,  0        ,  2.330108
PULSE NO.,RESISTANCE,REACTANCE:  3 ,  0        ,  2.330108
PULSE NO.,RESISTANCE,REACTANCE:  4 ,  0        ,  2.330108
PULSE NO.,RESISTANCE,REACTANCE:  5 ,  0        ,  2.330108
PULSE NO.,RESISTANCE,REACTANCE:  6 ,  0        ,  2.330108
PULSE NO.,RESISTANCE,REACTANCE:  7 ,  0        ,  2.330108
PULSE NO.,RESISTANCE,REACTANCE:  8 ,  0        ,  2.330108
PULSE NO.,RESISTANCE,REACTANCE:  9 ,  0        ,  2.330108
PULSE NO.,RESISTANCE,REACTANCE: 10 ,  0        ,  2.330108
PULSE NO.,RESISTANCE,REACTANCE: 11 ,  0        ,  2.330108
PULSE NO.,RESISTANCE,REACTANCE: 12 ,  0        ,  2.330108
PULSE NO.,RESISTANCE,REACTANCE: 13 ,  0        ,  2.330108
PULSE NO.,RESISTANCE,REACTANCE: 14 ,  0        ,  2.330108
PULSE NO.,RESISTANCE,REACTANCE: 15 ,  0        ,  2.330108
PULSE NO.,RESISTANCE,REACTANCE: 16 ,  0        ,  2.330108
PULSE NO.,RESISTANCE,REACTANCE: 17 ,  0        ,  2.330108
PULSE NO.,RESISTANCE,REACTANCE: 18 ,  0        ,  2.330108
PULSE NO.,RESISTANCE,REACTANCE: 19 ,  0        ,  2.330108

********************    SOURCE DATA     ********************
PULSE 19      VOLTAGE = ( 1 , 0 J)
              CURRENT = ( 1.509653E-02 ,  2.874811E-04 J)
              IMPEDANCE = ( 66.21636 , -1.260949 J)
              POWER =  7.548267E-03  WATTS

********************    CURRENT DATA    ********************

WIRE NO.  1 :
PULSE         REAL          IMAGINARY     MAGNITUDE     PHASE
 NO.          (AMPS)        (AMPS)        (AMPS)        (DEGREES)
E              0             0             0             0
 1            -3.537880E-03  6.804608E-04  3.602725E-03  169.1129 
 2            -5.857526E-03  1.051985E-03  5.951242E-03  169.8185 
 3            -7.934125E-03  1.323262E-03  8.043715E-03  170.5313 
 4            -9.763338E-03  1.494952E-03  9.877128E-03  171.2945 
 5            -1.134657E-02  1.568368E-03  1.145445E-02  172.1302 
 6            -1.267064E-02  1.540752E-03  1.276398E-02  173.0669 
 7            -1.372014E-02  1.406550E-03  1.379204E-02  174.1466 
 8            -1.448093E-02  1.152190E-03  1.452670E-02  175.4508 
 9            -1.494204E-02  7.702066E-04  1.496187E-02  177.0492 
J             -1.509653E-02 -2.874811E-04  1.509927E-02 -178.9091 
WIRE NO.  2 :
PULSE         REAL          IMAGINARY     MAGNITUDE     PHASE
 NO.          (AMPS)        (AMPS)        (AMPS)        (DEGREES)
E              0             0             0             0
 10            3.537879E-03 -6.804608E-04  3.602724E-03 -10.88708 
 11            5.857524E-03 -1.051985E-03  5.951240E-03 -10.18152 
 12            7.934123E-03 -1.323262E-03  8.043713E-03 -9.468703 
 13            9.763333E-03 -1.494952E-03  9.877122E-03 -8.705461 
 14            1.134658E-02 -1.568368E-03  1.145446E-02 -7.869775 
 15            1.267065E-02 -1.540752E-03  1.276398E-02 -6.933133 
 16            1.372014E-02 -1.406550E-03  1.379205E-02 -5.853355 
 17            1.448093E-02 -1.152190E-03  1.452670E-02 -4.549214 
 18            1.494204E-02 -7.702066E-04  1.496187E-02 -2.950773 
J              1.509653E-02  2.874811E-04  1.509927E-02  1.090944 

********************     FAR FIELD      ********************

ZENITH ANGLE : INITIAL,INCREMENT,NUMBER: 0 , 10 , 10
AZIMUTH ANGLE: INITIAL,INCREMENT,NUMBER: 0 , 10 , 37

********************    PATTERN DATA    ********************
ZENITH        AZIMUTH       VERTICAL      HORIZONTAL    TOTAL
 ANGLE         ANGLE        PATTERN (DB)  PATTERN (DB)  PATTERN (DB)
 0             0            -999           2.089882      2.089882
 10            0            -999           2.089882      2.089882
 20            0            -999           2.089882      2.089882
 30            0            -999           2.089882      2.089882
 40            0            -999           2.089882      2.089882
 50            0            -999           2.089882      2.089882
 60            0            -999           2.089882      2.089882
 70            0            -999           2.089882      2.089882
 80            0            -999           2.089882      2.089882
 90            0            -999           2.089882      2.089882
 0             10           -13.11671      1.956911      2.089882
 10            10           -13.25126      1.955332      2.084352
 20            10           -13.66312      1.950783      2.068408
 30            10           -14.3792       1.943814      2.043922
 40            10           -15.45328      1.935262      2.013785
 50            10           -16.98612      1.926159      1.981593
 60            10           -19.17662      1.917602      1.951228
 70            10           -22.48197      1.910624      1.926391
 80            10           -28.37415      1.906069      1.910139
 90            10           -999           1.904487      1.904487
 0             20           -7.229084      1.549598      2.089882
 10            20           -7.368183      1.54347       2.068408
 20            20           -7.793147      1.525819      2.006265
 30            20           -8.529314      1.498756      1.910139
 40            20           -9.628079      1.465524      1.790661
 50            20           -11.18721      1.430119      1.661553
 60            20           -13.40247      1.39681       1.538311
 70            20           -16.72802      1.369628      1.436413
 80            20           -22.63341      1.351873      1.369187
 90            20           -999           1.345704      1.345704
 0             30           -3.930718      .840494       2.089882
 10            30           -4.076786      .827397       2.043922
 20            30           -4.521844      .789653       1.910139
 30            30           -5.288869      .731731       1.700831
 40            30           -6.425609      .660524       1.436413
 50            30           -8.025304      .584559       1.144933
 60            30           -10.27882      .512995       .860616 
 70            30           -13.63565      .454526       .620651 
 80            30           -19.56151      .416301       .459735 
 90            30           -999           .403013       .403013 
 0             40           -1.748768     -.225039       2.089882
 10            40           -1.903388     -.246688       2.013785
 20            40           -2.373126     -.309113       1.790661
 30            40           -3.178126     -.405009       1.436413
 40            40           -4.361721     -.523071       .978892 
 50            40           -6.011612     -.649233       .459735 
 60            40           -8.312613     -.768284      -.064129 
 70            40           -11.70839     -.865697      -.521969 
 80            40           -17.65978     -.929455      -.838216 
 90            40           -999          -.951631      -.951631 
 0             50           -.225039      -1.748768      2.089882
 10            50           -.388762      -1.779521      1.981593
 20            50           -.884802      -1.868248      1.661553
 30            50           -1.730362     -2.004704      1.144933
 40            50           -2.964153     -2.172962      .459735 
 50            50           -4.668009     -2.353088     -.3478   
 60            50           -7.020245     -2.523375     -1.20376 
 70            50           -10.45818     -2.662939     -1.995429
 80            50           -16.43727     -2.7544       -2.57228 
 90            50           -999          -2.786233     -2.786233
 0             60            .840494      -3.930718      2.089882
 10            60            .668214      -3.970027      1.951228
 20            60            .147422      -4.083507      1.538311
 30            60           -.736392      -4.258218      .860616 
 40            60           -2.017672     -4.473963     -.064129 
 50            60           -3.772762     -4.705324     -1.20376 
 60            60           -6.173821     -4.924434     -2.494053
 70            60           -9.652054     -5.1043       -3.797961
 80            60           -15.6577      -5.222314     -4.846213
 90            60           -999          -5.263415     -5.263415
 0             70            1.549598     -7.229084      2.089882
 10            70            1.37034      -7.275371      1.926391
 20            70            .829344      -7.409055      1.436413
 30            70           -.085757      -7.615053      .620651 
 40            70           -1.405981     -7.869743     -.521969 
 50            70           -3.203223     -8.143256     -1.995429
 60            70           -5.644584     -8.402666     -3.797961
 70            70           -9.156184     -8.6159       -5.867346
 80            70           -15.18386     -8.755951     -7.865314
 90            70           -999          -8.804753     -8.804753
 0             80            1.956911     -13.11671      2.089882
 10            80            1.773098     -13.16756      1.910139
 20            80            1.218902     -13.31444      1.369187
 30            80            .28333       -13.54091      .459735 
 40            80           -1.062426     -13.82113     -.838216 
 50            80           -2.887371     -14.12235     -2.57228 
 60            80           -5.355285     -14.40831     -4.846213
 70            80           -8.888921     -14.64358     -7.865314
 80            80           -14.93118     -14.79821     -11.85388
 90            80           -999          -14.85211     -14.85211
 0             90            2.089882     -999           2.089882
 10            90            1.904487     -999           1.904487
 20            90            1.345704     -999           1.345704
 30            90            .403013      -999           .403013 
 40            90           -.951631      -999          -.951631 
 50            90           -2.786233     -999          -2.786233
 60            90           -5.263415     -999          -5.263415
 70            90           -8.804753     -999          -8.804753
 80            90           -14.85211     -999          -14.85211
 90            90           -999          -999          -999     
 0             100           1.956911     -13.11671      2.089882
 10            100           1.773098     -13.16756      1.910139
 20            100           1.218902     -13.31444      1.369187
 30            100           .28333       -13.54091      .459735 
 40            100          -1.062426     -13.82113     -.838216 
 50            100          -2.887371     -14.12235     -2.57228 
 60            100          -5.355285     -14.40831     -4.846213
 70            100          -8.888921     -14.64358     -7.865314
 80            100          -14.93118     -14.79821     -11.85388
 90            100          -999          -14.85211     -14.85211
 0             110           1.549598     -7.229084      2.089882
 10            110           1.37034      -7.275371      1.926391
 20            110           .829344      -7.409055      1.436413
 30            110          -.085757      -7.615053      .620651 
 40            110          -1.405981     -7.869743     -.521969 
 50            110          -3.203223     -8.143256     -1.995429
 60            110          -5.644584     -8.402666     -3.797961
 70            110          -9.156184     -8.6159       -5.867346
 80            110          -15.18386     -8.755951     -7.865314
 90            110          -999          -8.804753     -8.804753
 0             120           .840494      -3.930718      2.089882
 10            120           .668214      -3.970027      1.951228
 20            120           .147422      -4.083507      1.538311
 30            120          -.736392      -4.258218      .860616 
 40            120          -2.017672     -4.473963     -.064129 
 50            120          -3.772762     -4.705324     -1.20376 
 60            120          -6.173821     -4.924434     -2.494053
 70            120          -9.652054     -5.1043       -3.797961
 80            120          -15.6577      -5.222314     -4.846213
 90            120          -999          -5.263415     -5.263415
 0             130          -.225039      -1.748768      2.089882
 10            130          -.388762      -1.779521      1.981593
 20            130          -.884802      -1.868248      1.661553
 30            130          -1.730362     -2.004704      1.144933
 40            130          -2.964153     -2.172962      .459735 
 50            130          -4.668009     -2.353088     -.3478   
 60            130          -7.020245     -2.523375     -1.20376 
 70            130          -10.45818     -2.662939     -1.995429
 80            130          -16.43727     -2.7544       -2.57228 
 90            130          -999          -2.786233     -2.786233
 0             140          -1.748768     -.225039       2.089882
 10            140          -1.903388     -.246688       2.013785
 20            140          -2.373126     -.309113       1.790661
 30            140          -3.178126     -.405009       1.436413
 40            140          -4.361721     -.523071       .978892 
 50            140          -6.011612     -.649233       .459735 
 60            140          -8.312613     -.768284      -.064129 
 70            140          -11.70839     -.865697      -.521969 
 80            140          -17.65978     -.929455      -.838216 
 90            140          -999          -.951631      -.951631 
 0             150          -3.930718      .840494       2.089882
 10            150          -4.076786      .827397       2.043922
 20            150          -4.521844      .789653       1.910139
 30            150          -5.288869      .731731       1.700831
 40            150          -6.425609      .660524       1.436413
 50            150          -8.025304      .584559       1.144933
 60            150          -10.27882      .512995       .860616 
 70            150          -13.63565      .454526       .620651 
 80            150          -19.56151      .416301       .459735 
 90            150          -999           .403013       .403013 
 0             160          -7.229084      1.549598      2.089882
 10            160          -7.368183      1.54347       2.068408
 20            160          -7.793147      1.525819      2.006265
 30            160          -8.529314      1.498756      1.910139
 40            160          -9.628079      1.465524      1.790661
 50            160          -11.18721      1.430119      1.661553
 60            160          -13.40247      1.39681       1.538311
 70            160          -16.72802      1.369628      1.436413
 80            160          -22.63341      1.351873      1.369187
 90            160          -999           1.345704      1.345704
 0             170          -13.11671      1.956911      2.089882
 10            170          -13.25126      1.955332      2.084352
 20            170          -13.66312      1.950783      2.068408
 30            170          -14.3792       1.943814      2.043922
 40            170          -15.45328      1.935262      2.013785
 50            170          -16.98612      1.926159      1.981593
 60            170          -19.17662      1.917602      1.951228
 70            170          -22.48197      1.910624      1.926391
 80            170          -28.37415      1.906069      1.910139
 90            170          -999           1.904487      1.904487
 0             180          -999           2.089882      2.089882
 10            180          -999           2.089882      2.089882
 20            180          -999           2.089882      2.089882
 30            180          -999           2.089882      2.089882
 40            180          -999           2.089882      2.089882
 50            180          -999           2.089882      2.089882
 60            180          -999           2.089882      2.089882
 70            180          -999           2.089882      2.089882
 80            180          -999           2.089882      2.089882
 90            180          -999           2.089882      2.089882
 0             190          -13.11671      1.956911      2.089882
 10            190          -13.25126      1.955332      2.084352
 20            190          -13.66312      1.950783      2.068408
 30            190          -14.3792       1.943814      2.043922
 40            190          -15.45328      1.935262      2.013785
 50            190          -16.98612      1.926159      1.981593
 60            190          -19.17662      1.917602      1.951228
 70            190          -22.48197      1.910624      1.926391
 80            190          -28.37415      1.906069      1.910139
 90            190          -999           1.904487      1.904487
 0             200          -7.229084      1.549598      2.089882
 10            200          -7.368183      1.54347       2.068408
 20            200          -7.793147      1.525819      2.006265
 30            200          -8.529314      1.498756      1.910139
 40            200          -9.628079      1.465524      1.790661
 50            200          -11.18721      1.430119      1.661553
 60            200          -13.40247      1.39681       1.538311
 70            200          -16.72802      1.369628      1.436413
 80            200          -22.63341      1.351873      1.369187
 90            200          -999           1.345704      1.345704
 0             210          -3.930718      .840494       2.089882
 10            210          -4.076786      .827397       2.043922
 20            210          -4.521844      .789653       1.910139
 30            210          -5.288869      .731731       1.700831
 40            210          -6.425609      .660524       1.436413
 50            210          -8.025304      .584559       1.144933
 60            210          -10.27882      .512995       .860616 
 70            210          -13.63565      .454526       .620651 
 80            210          -19.56151      .416301       .459735 
 90            210          -999           .403013       .403013 
 0             220          -1.748768     -.225039       2.089882
 10            220          -1.903388     -.246688       2.013785
 20            220          -2.373126     -.309113       1.790661
 30            220          -3.178126     -.405009       1.436413
 40            220          -4.361721     -.523071       .978892 
 50            220          -6.011612     -.649233       .459735 
 60            220          -8.312613     -.768284      -.064129 
 70            220          -11.70839     -.865697      -.521969 
 80            220          -17.65978     -.929455      -.838216 
 90            220          -999          -.951631      -.951631 
 0             230          -.225039      -1.748768      2.089882
 10            230          -.388762      -1.779521      1.981593
 20            230          -.884802      -1.868248      1.661553
 30            230          -1.730362     -2.004704      1.144933
 40            230          -2.964153     -2.172962      .459735 
 50            230          -4.668009     -2.353088     -.3478   
 60            230          -7.020245     -2.523375     -1.20376 
 70            230          -10.45818     -2.662939     -1.995429
 80            230          -16.43727     -2.7544       -2.572279
 90            230          -999          -2.786233     -2.786233
 0             240           .840494      -3.930718      2.089882
 10            240           .668214      -3.970027      1.951228
 20            240           .147422      -4.083507      1.538311
 30            240          -.736392      -4.258218      .860616 
 40            240          -2.017672     -4.473963     -.064129 
 50            240          -3.772762     -4.705324     -1.20376 
 60            240          -6.173821     -4.924434     -2.494053
 70            240          -9.652054     -5.1043       -3.797961
 80            240          -15.6577      -5.222314     -4.846213
 90            240          -999          -5.263415     -5.263415
 0             250           1.549598     -7.229084      2.089882
 10            250           1.37034      -7.275371      1.926391
 20            250           .829344      -7.409055      1.436413
 30            250          -.085757      -7.615053      .620651 
 40            250          -1.405981     -7.869743     -.521969 
 50            250          -3.203223     -8.143256     -1.995429
 60            250          -5.644584     -8.402666     -3.797961
 70            250          -9.156184     -8.6159       -5.867346
 80            250          -15.18386     -8.755951     -7.865314
 90            250          -999          -8.804753     -8.804753
 0             260           1.956911     -13.11671      2.089882
 10            260           1.773098     -13.16756      1.910139
 20            260           1.218902     -13.31444      1.369187
 30            260           .28333       -13.54091      .459735 
 40            260          -1.062426     -13.82113     -.838216 
 50            260          -2.887371     -14.12235     -2.572279
 60            260          -5.355285     -14.40831     -4.846213
 70            260          -8.888921     -14.64358     -7.865314
 80            260          -14.93118     -14.79821     -11.85388
 90            260          -999          -14.85211     -14.85211
 0             270           2.089882     -999           2.089882
 10            270           1.904487     -999           1.904487
 20            270           1.345704     -999           1.345704
 30            270           .403013      -999           .403013 
 40            270          -.951631      -999          -.951631 
 50            270          -2.786233     -999          -2.786233
 60            270          -5.263415     -999          -5.263415
 70            270          -8.804753     -999          -8.804753
 80            270          -14.85211     -999          -14.85211
 90            270          -999          -999          -999     
 0             280           1.956911     -13.11671      2.089882
 10            280           1.773098     -13.16756      1.910139
 20            280           1.218902     -13.31444      1.369187
 30            280           .28333       -13.54091      .459735 
 40            280          -1.062426     -13.82113     -.838216 
 50            280          -2.887371     -14.12235     -2.572279
 60            280          -5.355285     -14.40831     -4.846213
 70            280          -8.888921     -14.64358     -7.865314
 80            280          -14.93118     -14.79821     -11.85388
 90            280          -999          -14.85211     -14.85211
 0             290           1.549598     -7.229084      2.089882
 10            290           1.37034      -7.275371      1.926391
 20            290           .829344      -7.409055      1.436413
 30            290          -.085757      -7.615053      .620651 
 40            290          -1.405981     -7.869743     -.521969 
 50            290          -3.203223     -8.143256     -1.995429
 60            290          -5.644584     -8.402666     -3.797961
 70            290          -9.156184     -8.6159       -5.867346
 80            290          -15.18386     -8.755951     -7.865314
 90            290          -999          -8.804753     -8.804753
 0             300           .840494      -3.930718      2.089882
 10            300           .668214      -3.970027      1.951228
 20            300           .147422      -4.083507      1.538311
 30            300          -.736392      -4.258218      .860616 
 40            300          -2.017672     -4.473963     -.064129 
 50            300          -3.772762     -4.705324     -1.20376 
 60            300          -6.173821     -4.924434     -2.494053
 70            300          -9.652054     -5.1043       -3.797961
 80            300          -15.6577      -5.222314     -4.846213
 90            300          -999          -5.263415     -5.263415
 0             310          -.225039      -1.748768      2.089882
 10            310          -.388762      -1.779521      1.981593
 20            310          -.884802      -1.868248      1.661553
 30            310          -1.730362     -2.004704      1.144933
 40            310          -2.964153     -2.172962      .459735 
 50            310          -4.668009     -2.353088     -.3478   
 60            310          -7.020245     -2.523375     -1.20376 
 70            310          -10.45818     -2.662939     -1.995429
 80            310          -16.43727     -2.7544       -2.572279
 90            310          -999          -2.786233     -2.786233
 0             320          -1.748768     -.225039       2.089882
 10            320          -1.903388     -.246688       2.013785
 20            320          -2.373126     -.309113       1.790661
 30            320          -3.178126     -.405009       1.436413
 40            320          -4.361721     -.523071       .978892 
 50            320          -6.011612     -.649233       .459735 
 60            320          -8.312613     -.768284      -.064129 
 70            320          -11.70839     -.865697      -.521969 
 80            320          -17.65978     -.929455      -.838216 
 90            320          -999          -.951631      -.951631 
 0             330          -3.930718      .840494       2.089882
 10            330          -4.076786      .827397       2.043922
 20            330          -4.521844      .789653       1.910139
 30            330          -5.288869      .731731       1.700831
 40            330          -6.425609      .660524       1.436413
 50            330          -8.025304      .584559       1.144933
 60            330          -10.27882      .512995       .860616 
 70            330          -13.63565      .454526       .620651 
 80            330          -19.56151      .416301       .459735 
 90            330          -999           .403013       .403013 
 0             340          -7.229084      1.549598      2.089882
 10            340          -7.368183      1.54347       2.068408
 20            340          -7.793147      1.525819      2.006265
 30            340          -8.529314      1.498756      1.910139
 40            340          -9.628079      1.465524      1.790661
 50            340          -11.18721      1.430119      1.661553
 60            340          -13.40247      1.39681       1.538311
 70            340          -16.72802      1.369628      1.436413
 80            340          -22.63341      1.351873      1.369187
 90            340          -999           1.345704      1.345704
 0             350          -13.11671      1.956911      2.089882
 10            350          -13.25126      1.955332      2.084352
 20            350          -13.66312      1.950783      2.068408
 30            350          -14.3792       1.943814      2.043922
 40            350          -15.45328      1.935262      2.013785
 50            350          -16.98612      1.926159      1.981593
 60            350          -19.17662      1.917602      1.951228
 70            350          -22.48197      1.910624      1.926391
 80            350          -28.37415      1.906069      1.910139
 90            350          -999           1.904487      1.904487
 0             360          -999           2.089882      2.089882
 10            360          -999           2.089882      2.089882
 20            360          -999           2.089882      2.089882
 30            360          -999           2.089882      2.089882
 40            360          -999           2.089882      2.089882
 50            360          -999           2.089882      2.089882
 60            360          -999           2.089882      2.089882
 70            360          -999           2.089882      2.089882
 80            360          -999           2.089882      2.089882
 90            360          -999           2.089882      2.089882