                   ****************************************
                     MINI-NUMERICAL ELECTROMAGNETICS CODE
                                   MININEC
                   ****************************************

FREQUENCY (MHZ): 600
    WAVE LENGTH =  .499667  METERS

ENVIRONMENT (+1 FOR FREE SPACE, -1 FOR GROUND PLANE): +1

NO. OF WIRES: 2

WIRE NO. 1
            COORDINATES                                 END         NO. OF
   X             Y             Z          RADIUS     CONNECTION     SEGMENTS
 0             .110864       0                          0
 0             0             0             .004195      0             10

WIRE NO. 2
            COORDINATES                                 END         NO. OF
   X             Y             Z          RADIUS     CONNECTION     SEGMENTS
 0            -.110864       0                          0
 0             0             0             .003175     -1             10

                  **** ANTENNA GEOMETRY ****

WIRE NO.  1  COORDINATES                                CONNECTION PULSE
X             Y             Z             RADIUS        END1 END2  NO.
 0             .099777       0             .004195       0    1   1
 0             .08869        0             .004195       1    1   2
 0             .077604       0             .004195       1    1   3
 0             .066518       0             .004195       1    1   4
 0             .055431       0             .004195       1    1   5
 0             .044345       0             .004195       1    1   6
 0             .033259       0             .004195       1    1   7
 0             .022172       0             .004195       1    1   8
 0             .011086       0             .004195       1    0   9

WIRE NO.  2  COORDINATES                                CONNECTION PULSE
X             Y             Z             RADIUS        END1 END2  NO.
 0            -.099777       0             .003175       0    2  10
 0            -.08869        0             .003175       2    2  11
 0            -.077604       0             .003175       2    2  12
 0            -.066518       0             .003175       2    2  13
 0            -.055431       0             .003175       2    2  14
 0            -.044345       0             .003175       2    2  15
 0            -.033259       0             .003175       2    2  16
 0            -.022172       0             .003175       2    2  17
 0            -.011086       0             .003175       2    2  18
 0             0             0             .003175       2   -1  19

NO. OF SOURCES :  1
PULSE NO., VOLTAGE MAGNITUDE, PHASE (DEGREES): 19 , 1 , 0
NUMBER OF LOADS 20
PULSE NO.,RESISTANCE,REACTANCE:  1 ,  .003503  ,  .003503 
PULSE NO.,RESISTANCE,REACTANCE:  2 ,  .003503  ,  .003503 
PULSE NO.,RESISTANCE,REACTANCE:  3 ,  .003503  ,  .003503 
PULSE NO.,RESISTANCE,REACTANCE:  4 ,  .003503  ,  .003503 
PULSE NO.,RESISTANCE,REACTANCE:  5 ,  .003503  ,  .003503 
PULSE NO.,RESISTANCE,REACTANCE:  6 ,  .003503  ,  .003503 
PULSE NO.,RESISTANCE,REACTANCE:  7 ,  .003503  ,  .003503 
PULSE NO.,RESISTANCE,REACTANCE:  8 ,  .003503  ,  .003503 
PULSE NO.,RESISTANCE,REACTANCE:  9 ,  .003503  ,  .003503 
PULSE NO.,RESISTANCE,REACTANCE:  1 ,  0        ,  2.33011 
PULSE NO.,RESISTANCE,REACTANCE:  2 ,  0        ,  2.33011 
PULSE NO.,RESISTANCE,REACTANCE:  3 ,  0        ,  2.33011 
PULSE NO.,RESISTANCE,REACTANCE:  4 ,  0        ,  2.33011 
PULSE NO.,RESISTANCE,REACTANCE:  5 ,  0        ,  2.33011 
PULSE NO.,RESISTANCE,REACTANCE:  6 ,  0        ,  2.33011 
PULSE NO.,RESISTANCE,REACTANCE:  7 ,  0        ,  2.33011 
PULSE NO.,RESISTANCE,REACTANCE:  8 ,  0        ,  2.33011 
PULSE NO.,RESISTANCE,REACTANCE:  9 ,  0        ,  2.33011 
PULSE NO.,RESISTANCE,REACTANCE: 19 ,  .001751  ,  .001751 
PULSE NO.,RESISTANCE,REACTANCE: 19 ,  0        ,  1.16505 

********************    SOURCE DATA     ********************
PULSE 19      VOLTAGE = ( 1 , 0 J)
              CURRENT = ( 1.502354E-02 ,  2.459564E-03 J)
              IMPEDANCE = ( 64.82475 , -10.61272 J)
              POWER =  7.511771E-03  WATTS

********************    CURRENT DATA    ********************

WIRE NO.  1 :
PULSE         REAL          IMAGINARY     MAGNITUDE     PHASE
 NO.          (AMPS)        (AMPS)        (AMPS)        (DEGREES)
E              0             0             0             0
 1            -3.926540E-03  2.843254E-04  3.936820E-03  175.8584 
 2            -6.199709E-03  3.641456E-04  6.210394E-03  176.6385 
 3            -8.293785E-03  3.765472E-04  8.302328E-03  177.4005 
 4            -1.011073E-02  3.144557E-04  1.011562E-02  178.2186 
 5            -1.166626E-02  1.804945E-04  1.166766E-02  179.1136 
 6            -1.294638E-02 -2.660747E-05  1.294640E-02 -179.8822 
 7            -1.393642E-02 -3.094494E-04  1.393986E-02 -178.728  
 8            -1.462225E-02 -6.883612E-04  1.463844E-02 -177.3047 
 9            -1.499297E-02 -1.107198E-03  1.503380E-02 -175.7765 
J             -1.502354E-02 -2.459564E-03  1.522354E-02 -170.7024 
WIRE NO.  2 :
PULSE         REAL          IMAGINARY     MAGNITUDE     PHASE
 NO.          (AMPS)        (AMPS)        (AMPS)        (DEGREES)
E              0             0             0             0
 10            3.507062E-03 -1.856340E-04  3.511971E-03 -3.029924 
 11            5.727627E-03 -2.299453E-04  5.732241E-03 -2.299001 
 12            7.748601E-03 -2.124761E-04  7.751514E-03 -1.570726 
 13            9.532046E-03 -1.316001E-04  9.532954E-03 -.790979  
 14            1.108626E-02  1.172397E-05  1.108627E-02  6.059156E-02 
 15            1.240023E-02  2.191046E-04  1.240217E-02  1.012276 
 16            1.346107E-02  4.945574E-04  1.347015E-02  2.104091 
 17            1.425672E-02  8.540359E-04  1.428228E-02  3.428154 
 18            1.477797E-02  1.283893E-03  1.483364E-02  4.965324 
J              1.502354E-02  2.459564E-03  1.522354E-02  9.297639 

********************     FAR FIELD      ********************

ZENITH ANGLE : INITIAL,INCREMENT,NUMBER: 0 , 10 , 10
AZIMUTH ANGLE: INITIAL,INCREMENT,NUMBER: 0 , 10 , 37

********************    PATTERN DATA    ********************
ZENITH        AZIMUTH       VERTICAL      HORIZONTAL    TOTAL
 ANGLE         ANGLE        PATTERN (DB)  PATTERN (DB)  PATTERN (DB)
 0             0            -999           2.090779      2.090779
 10            0            -999           2.090779      2.090779
 20            0            -999           2.090779      2.090779
 30            0            -999           2.090779      2.090779
 40            0            -999           2.090779      2.090779
 50            0            -999           2.090779      2.090779
 60            0            -999           2.090779      2.090779
 70            0            -999           2.090779      2.090779
 80            0            -999           2.090779      2.090779
 90            0            -999           2.090779      2.090779
 0             10           -13.11582      1.957808      2.090779
 10            10           -13.24902      1.957575      2.086595
 20            10           -13.65959      1.954323      2.071948
 30            10           -14.37445      1.948561      2.048669
 40            10           -15.44745      1.941094      2.019617
 50            10           -16.97935      1.932923      1.988358
 60            10           -19.1691       1.92512       1.958746
 70            10           -22.47389      1.918696      1.934462
 80            10           -28.36574      1.914479      1.918549
 90            10           -999           1.913011      1.913011
 0             20           -7.228188      1.550495      2.090779
 10            20           -7.364644      1.54701       2.071948
 20            20           -7.787081      1.531886      2.012331
 30            20           -8.520904      1.507166      1.918549
 40            20           -9.617569      1.476034      1.801171
 50            20           -11.1749       1.442429      1.673863
 60            20           -13.38871      1.410574      1.552075
 70            20           -16.71319      1.38446       1.451245
 80            20           -22.61792      1.367358      1.384672
 90            20           -999           1.361409      1.361409
 0             30           -3.929821      .841391       2.090779
 10            30           -4.072039      .832144       2.048669
 20            30           -4.513434      .798063       1.918549
 30            30           -5.27707       .743529       1.71263 
 40            30           -6.410777      .675357       1.451245
 50            30           -8.007866      .601996       1.16237 
 60            30           -10.25927      .532542       .880163 
 70            30           -13.61455      .475628       .641752 
 80            30           -19.53945      .438355       .481789 
 90            30           -999           .425388       .425388 
 0             40           -1.747871     -.224142       2.090779
 10            40           -1.897556     -.240856       2.019617
 20            40           -2.362616     -.298603       1.801171
 30            40           -3.163293     -.390177       1.451245
 40            40           -4.343011     -.504361       .997602 
 50            40           -5.989558     -.627179       .481789 
 60            40           -8.287837     -.743508      -.039353 
 70            40           -11.6816      -.838904      -.495176 
 80            40           -17.63174     -.90142       -.810181 
 90            40           -999          -.923176      -.923176 
 0             50           -.224142      -1.747871      2.090779
 10            50           -.381997      -1.772756      1.988358
 20            50           -.872492      -1.855938      1.673863
 30            50           -1.712924     -1.987266      1.16237 
 40            50           -2.942099     -2.150908      .481789 
 50            50           -4.64195      -2.327029     -.321741 
 60            50           -6.990901     -2.494031     -1.174416
 70            50           -10.42638     -2.631143     -1.963633
 80            50           -16.40395     -2.721085     -2.538965
 90            50           -999          -2.752403     -2.752403
 0             60            .841391      -3.929821      2.090779
 10            60            .675732      -3.962509      1.958746
 20            60            .161186      -4.069743      1.552075
 30            60           -.716846      -4.238671      .880163 
 40            60           -1.992895     -4.449187     -.039353 
 50            60           -3.743418     -4.67598      -1.174416
 60            60           -6.140701     -4.891313     -2.460933
 70            60           -9.616091     -5.068338     -3.761998
 80            60           -15.61996     -5.18458      -4.808478
 90            60           -999          -5.225078     -5.225078
 0             70            1.550495     -7.228188      2.090779
 10            70            1.378412     -7.2673        1.934462
 20            70            .844177      -7.394222      1.451245
 30            70           -.064656      -7.593951      .641752 
 40            70           -1.379187     -7.842949     -.495176 
 50            70           -3.171427     -8.11146      -1.963633
 60            70           -5.608621     -8.366704     -3.761998
 70            70           -9.117064     -8.57678      -5.828226
 80            70           -15.14276     -8.714851     -7.824214
 90            70           -999          -8.762978     -8.762978
 0             80            1.957808     -13.11582      2.090779
 10            80            1.781508     -13.15915      1.918549
 20            80            1.234388     -13.29895      1.384672
 30            80            .305384      -13.51885      .481789 
 40            80           -1.034391     -13.79309     -.810181 
 50            80           -2.854056     -14.08903     -2.538965
 60            80           -5.317551     -14.37058     -4.808478
 70            80           -8.847822     -14.60248     -7.824214
 80            80           -14.88796     -14.75499     -11.81067
 90            80           -999          -14.80817     -14.80817
 0             90            2.090779     -999           2.090779
 10            90            1.913011     -999           1.913011
 20            90            1.361409     -999           1.361409
 30            90            .425388      -999           .425388 
 40            90           -.923176      -999          -.923176 
 50            90           -2.752403     -999          -2.752403
 60            90           -5.225078     -999          -5.225078
 70            90           -8.762978     -999          -8.762978
 80            90           -14.80817     -999          -14.80817
 90            90           -999          -999          -999     
 0             100           1.957808     -13.11582      2.090779
 10            100           1.781508     -13.15915      1.918549
 20            100           1.234388     -13.29895      1.384672
 30            100           .305384      -13.51885      .481789 
 40            100          -1.034391     -13.79309     -.810181 
 50            100          -2.854056     -14.08903     -2.538965
 60            100          -5.317551     -14.37058     -4.808478
 70            100          -8.847822     -14.60248     -7.824214
 80            100          -14.88796     -14.75499     -11.81067
 90            100          -999          -14.80817     -14.80817
 0             110           1.550495     -7.228188      2.090779
 10            110           1.378412     -7.2673        1.934462
 20            110           .844177      -7.394222      1.451245
 30            110          -.064656      -7.593951      .641752 
 40            110          -1.379187     -7.842949     -.495176 
 50            110          -3.171427     -8.11146      -1.963633
 60            110          -5.608621     -8.366704     -3.761998
 70            110          -9.117064     -8.57678      -5.828226
 80            110          -15.14276     -8.714851     -7.824214
 90            110          -999          -8.762978     -8.762978
 0             120           .841391      -3.929821      2.090779
 10            120           .675732      -3.962509      1.958746
 20            120           .161186      -4.069743      1.552075
 30            120          -.716846      -4.238671      .880163 
 40            120          -1.992895     -4.449187     -.039353 
 50            120          -3.743418     -4.67598      -1.174416
 60            120          -6.140701     -4.891313     -2.460933
 70            120          -9.616091     -5.068338     -3.761998
 80            120          -15.61996     -5.18458      -4.808478
 90            120          -999          -5.225078     -5.225078
 0             130          -.224142      -1.747871      2.090779
 10            130          -.381997      -1.772756      1.988358
 20            130          -.872492      -1.855938      1.673863
 30            130          -1.712924     -1.987266      1.16237 
 40            130          -2.942099     -2.150908      .481789 
 50            130          -4.64195      -2.327029     -.321741 
 60            130          -6.990901     -2.494031     -1.174416
 70            130          -10.42638     -2.631143     -1.963633
 80            130          -16.40395     -2.721085     -2.538965
 90            130          -999          -2.752403     -2.752403
 0             140          -1.747871     -.224142       2.090779
 10            140          -1.897556     -.240856       2.019617
 20            140          -2.362616     -.298603       1.801171
 30            140          -3.163293     -.390177       1.451245
 40            140          -4.343011     -.504361       .997602 
 50            140          -5.989558     -.627179       .481789 
 60            140          -8.287837     -.743508      -.039353 
 70            140          -11.6816      -.838904      -.495176 
 80            140          -17.63174     -.90142       -.810181 
 90            140          -999          -.923176      -.923176 
 0             150          -3.929821      .841391       2.090779
 10            150          -4.072039      .832144       2.048669
 20            150          -4.513434      .798063       1.918549
 30            150          -5.27707       .743529       1.71263 
 40            150          -6.410777      .675357       1.451245
 50            150          -8.007866      .601996       1.16237 
 60            150          -10.25927      .532542       .880163 
 70            150          -13.61455      .475628       .641752 
 80            150          -19.53945      .438355       .481789 
 90            150          -999           .425388       .425388 
 0             160          -7.228188      1.550495      2.090779
 10            160          -7.364644      1.54701       2.071948
 20            160          -7.787081      1.531886      2.012331
 30            160          -8.520904      1.507166      1.918549
 40            160          -9.617569      1.476034      1.801171
 50            160          -11.1749       1.442429      1.673863
 60            160          -13.38871      1.410574      1.552075
 70            160          -16.71319      1.38446       1.451245
 80            160          -22.61792      1.367358      1.384672
 90            160          -999           1.361409      1.361409
 0             170          -13.11582      1.957808      2.090779
 10            170          -13.24902      1.957575      2.086595
 20            170          -13.65959      1.954323      2.071948
 30            170          -14.37445      1.948561      2.048669
 40            170          -15.44745      1.941094      2.019617
 50            170          -16.97935      1.932923      1.988358
 60            170          -19.1691       1.92512       1.958746
 70            170          -22.47389      1.918696      1.934462
 80            170          -28.36574      1.914479      1.918549
 90            170          -999           1.913011      1.913011
 0             180          -999           2.090779      2.090779
 10            180          -999           2.090779      2.090779
 20            180          -999           2.090779      2.090779
 30            180          -999           2.090779      2.090779
 40            180          -999           2.090779      2.090779
 50            180          -999           2.090779      2.090779
 60            180          -999           2.090779      2.090779
 70            180          -999           2.090779      2.090779
 80            180          -999           2.090779      2.090779
 90            180          -999           2.090779      2.090779
 0             190          -13.11582      1.957808      2.090779
 10            190          -13.25172      1.954871      2.083891
 20            190          -13.66491      1.948995      2.06662 
 30            190          -14.38224      1.940769      2.040877
 40            190          -15.45747      1.931072      2.009595
 50            190          -16.9913       1.920973      1.976408
 60            190          -19.18262      1.911603      1.94523 
 70            190          -22.48857      1.904024      1.91979 
 80            190          -28.38112      1.899098      1.903168
 90            190          -999           1.897391      1.897391
 0             200          -7.228188      1.550495      2.090779
 10            200          -7.369971      1.541682      2.06662 
 20            200          -7.797585      1.521381      2.001826
 30            200          -8.536284      1.491786      1.903168
 40            200          -9.63738       1.456223      1.78136 
 50            200          -11.19856      1.418771      1.650205
 60            200          -13.41551      1.383776      1.525278
 70            200          -16.74231      1.355338      1.422122
 80            200          -22.64847      1.336806      1.35412 
 90            200          -999           1.330375      1.330375
 0             210          -3.929821      .841391       2.090779
 10            210          -4.079831      .824352       2.040877
 20            210          -4.528814      .782682       1.903168
 30            210          -5.299631      .720969       1.690069
 40            210          -6.439899      .646234       1.422122
 50            210          -8.042727      .567136       1.12751 
 60            210          -10.29885      .492967       .840588 
 70            210          -13.65764      .432539       .598664 
 80            210          -19.58471      .393097       .436531 
 90            210          -999           .379396       .379396 
 0             220          -1.747871     -.224142       2.090779
 10            220          -1.907578     -.250878       2.009595
 20            220          -2.382427     -.318414       1.78136 
 30            220          -3.192416     -.419299       1.422122
 40            220          -4.380708     -.542058       .959904 
 50            220          -6.034816     -.672437       .436531 
 60            220          -8.339361     -.795032      -.090877 
 70            220          -11.73783     -.895133      -.551405 
 80            220          -17.6909      -.960571      -.869332 
 90            220          -999          -.983319      -.983319 
 0             230          -.224142      -1.747871      2.090779
 10            230          -.393948      -1.784706      1.976408
 20            230          -.89615       -1.879596      1.650205
 30            230          -1.747785     -2.022127      1.12751 
 40            230          -2.987357     -2.196166      .436531 
 50            230          -4.69646      -2.38154      -.376252 
 60            230          -7.053151     -2.556281     -1.236666
 70            230          -10.49449     -2.699253     -2.031743
 80            230          -16.47572     -2.792858     -2.610737
 90            230          -999          -2.825422     -2.825422
 0             240           .841391      -3.929821      2.090779
 10            240           .662216      -3.976026      1.94523 
 20            240           .134389      -4.09654       1.525278
 30            240          -.756421      -4.278246      .840588 
 40            240          -2.044419     -4.500711     -.090877 
 50            240          -3.805668     -4.738231     -1.236666
 60            240          -6.212003     -4.962615     -2.532235
 70            240          -9.694301     -5.146548     -3.840209
 80            240          -15.70252     -5.267134     -4.891032
 90            240          -999          -5.309116     -5.309116
 0             250           1.550495     -7.228188      2.090779
 10            250           1.36374      -7.281972      1.91979 
 20            250           .815054      -7.423345      1.422122
 30            250          -.107744      -7.63704       .598664 
 40            250          -1.435416     -7.899178     -.551405 
 50            250          -3.239537     -8.179569     -2.031743
 60            250          -5.686831     -8.444914     -3.840209
 70            250          -9.203034     -8.66275      -5.914196
 80            250          -15.23364     -8.805724     -7.915088
 90            250          -999          -8.85553      -8.85553 
 0             260           1.957808     -13.11582      2.090779
 10            260           1.766128     -13.17453      1.903168
 20            260           1.203835     -13.32951      1.35412 
 30            260           .260126      -13.56411      .436531 
 40            260          -1.093542     -13.85225     -.869332 
 50            260          -2.925828     -14.1608      -2.610737
 60            260          -5.400105     -14.45313     -4.891032
 70            260          -8.938695     -14.69335     -7.915088
 80            260          -14.98411     -14.85114     -11.90681
 90            260          -999          -14.90613     -14.90613
 0             270           2.090779     -999           2.090779
 10            270           1.897391     -999           1.897391
 20            270           1.330375     -999           1.330375
 30            270           .379396      -999           .379396 
 40            270          -.983319      -999          -.983319 
 50            270          -2.825422     -999          -2.825422
 60            270          -5.309116     -999          -5.309116
 70            270          -8.85553      -999          -8.85553 
 80            270          -14.90613     -999          -14.90613
 90            270          -999          -999          -999     
 0             280           1.957808     -13.11582      2.090779
 10            280           1.766128     -13.17453      1.903168
 20            280           1.203835     -13.32951      1.35412 
 30            280           .260126      -13.56411      .436531 
 40            280          -1.093542     -13.85225     -.869332 
 50            280          -2.925828     -14.1608      -2.610737
 60            280          -5.400105     -14.45313     -4.891032
 70            280          -8.938695     -14.69335     -7.915088
 80            280          -14.98411     -14.85114     -11.90681
 90            280          -999          -14.90613     -14.90613
 0             290           1.550495     -7.228188      2.090779
 10            290           1.36374      -7.281972      1.91979 
 20            290           .815054      -7.423345      1.422122
 30            290          -.107744      -7.63704       .598664 
 40            290          -1.435416     -7.899178     -.551405 
 50            290          -3.239537     -8.179569     -2.031743
 60            290          -5.686831     -8.444914     -3.840209
 70            290          -9.203034     -8.66275      -5.914196
 80            290          -15.23364     -8.805724     -7.915088
 90            290          -999          -8.85553      -8.85553 
 0             300           .841391      -3.929821      2.090779
 10            300           .662216      -3.976026      1.94523 
 20            300           .134389      -4.09654       1.525278
 30            300          -.756421      -4.278246      .840588 
 40            300          -2.044419     -4.500711     -.090877 
 50            300          -3.805668     -4.738231     -1.236666
 60            300          -6.212003     -4.962615     -2.532235
 70            300          -9.694301     -5.146548     -3.840209
 80            300          -15.70252     -5.267134     -4.891032
 90            300          -999          -5.309116     -5.309116
 0             310          -.224142      -1.747871      2.090779
 10            310          -.393948      -1.784706      1.976408
 20            310          -.89615       -1.879596      1.650205
 30            310          -1.747785     -2.022127      1.12751 
 40            310          -2.987357     -2.196166      .436531 
 50            310          -4.69646      -2.38154      -.376252 
 60            310          -7.053151     -2.556281     -1.236666
 70            310          -10.49449     -2.699253     -2.031743
 80            310          -16.47572     -2.792858     -2.610737
 90            310          -999          -2.825422     -2.825422
 0             320          -1.747871     -.224142       2.090779
 10            320          -1.907578     -.250878       2.009595
 20            320          -2.382427     -.318414       1.78136 
 30            320          -3.192416     -.419299       1.422122
 40            320          -4.380708     -.542058       .959904 
 50            320          -6.034816     -.672437       .436531 
 60            320          -8.339361     -.795032      -.090877 
 70            320          -11.73783     -.895133      -.551405 
 80            320          -17.6909      -.960571      -.869332 
 90            320          -999          -.983319      -.983319 
 0             330          -3.929821      .841391       2.090779
 10            330          -4.079831      .824352       2.040877
 20            330          -4.528814      .782682       1.903168
 30            330          -5.299631      .720969       1.690069
 40            330          -6.439899      .646234       1.422122
 50            330          -8.042727      .567136       1.12751 
 60            330          -10.29885      .492967       .840588 
 70            330          -13.65764      .432539       .598664 
 80            330          -19.58471      .393097       .436531 
 90            330          -999           .379396       .379396 
 0             340          -7.228188      1.550495      2.090779
 10            340          -7.369971      1.541682      2.06662 
 20            340          -7.797585      1.521381      2.001826
 30            340          -8.536284      1.491786      1.903168
 40            340          -9.63738       1.456223      1.78136 
 50            340          -11.19856      1.418771      1.650205
 60            340          -13.41551      1.383776      1.525278
 70            340          -16.74231      1.355338      1.422122
 80            340          -22.64847      1.336806      1.35412 
 90            340          -999           1.330375      1.330375
 0             350          -13.11582      1.957808      2.090779
 10            350          -13.25172      1.954871      2.083891
 20            350          -13.66491      1.948995      2.06662 
 30            350          -14.38224      1.940769      2.040877
 40            350          -15.45747      1.931072      2.009595
 50            350          -16.9913       1.920973      1.976408
 60            350          -19.18262      1.911603      1.94523 
 70            350          -22.48857      1.904024      1.91979 
 80            350          -28.38112      1.899098      1.903168
 90            350          -999           1.897391      1.897391
 0             360          -999           2.090779      2.090779
 10            360          -999           2.090779      2.090779
 20            360          -999           2.090779      2.090779
 30            360          -999           2.090779      2.090779
 40            360          -999           2.090779      2.090779
 50            360          -999           2.090779      2.090779
 60            360          -999           2.090779      2.090779
 70            360          -999           2.090779      2.090779
 80            360          -999           2.090779      2.090779
 90            360          -999           2.090779      2.090779
