                   ****************************************
                     MINI-NUMERICAL ELECTROMAGNETICS CODE
                                   MININEC
                   ****************************************

FREQUENCY (MHZ): 7
    WAVE LENGTH =  42.82857  METERS

ENVIRONMENT (+1 FOR FREE SPACE, -1 FOR GROUND PLANE): +1

NO. OF WIRES: 1

WIRE NO. 1
            COORDINATES                                 END         NO. OF
   X             Y             Z          RADIUS     CONNECTION     SEGMENTS
 0             0             0                          0
 21.41428      0             0             .01          0             10

                  **** ANTENNA GEOMETRY ****

WIRE NO.  1  COORDINATES                                CONNECTION PULSE
X             Y             Z             RADIUS        END1 END2  NO.
 2.141428      0             0             .01           0    1   1
 4.282857      0             0             .01           1    1   2
 6.424285      0             0             .01           1    1   3
 8.565714      0             0             .01           1    1   4
 10.70714      0             0             .01           1    1   5
 12.84857      0             0             .01           1    1   6
 14.99         0             0             .01           1    1   7
 17.13143      0             0             .01           1    1   8
 19.27286      0             0             .01           1    0   9

NO. OF SOURCES :  1
PULSE NO., VOLTAGE MAGNITUDE, PHASE (DEGREES):  5 , 1 , 0
NUMBER OF LOADS 0

********************    SOURCE DATA     ********************
PULSE  5      VOLTAGE = ( 1 , 0 J)
              CURRENT = ( 1.006964E-02 , -5.166080E-03 J)
              IMPEDANCE = ( 78.61622 ,  40.33289 J)
              POWER =  5.034821E-03  WATTS

********************    CURRENT DATA    ********************

WIRE NO.  1 :
PULSE         REAL          IMAGINARY     MAGNITUDE     PHASE
 NO.          (AMPS)        (AMPS)        (AMPS)        (DEGREES)
E              0             0             0             0
 1             3.333007E-03 -2.117273E-03  3.948643E-03 -32.42551 
 2             6.098124E-03 -3.746618E-03  7.157113E-03 -31.56609 
 3             8.241238E-03 -4.862084E-03  9.568588E-03 -30.53934 
 4             9.602605E-03 -5.369345E-03  1.100181E-02 -29.21196 
 5             1.006964E-02 -5.166080E-03  1.131751E-02 -27.15942 
 6             9.602605E-03 -5.369345E-03  1.100181E-02 -29.21196 
 7             8.241238E-03 -4.862084E-03  9.568588E-03 -30.53934 
 8             6.098124E-03 -3.746618E-03  7.157113E-03 -31.56609 
 9             3.333007E-03 -2.117273E-03  3.948643E-03 -32.42551 
E              0             0             0             0

********************    NEAR FIELDS     ********************

X-COORDINATE (M): INITIAL,INCREMENT,NUMBER : -2 ,  1 ,  5
Y-COORDINATE (M): INITIAL,INCREMENT,NUMBER : -2 ,  1 ,  5
Z-COORDINATE (M): INITIAL,INCREMENT,NUMBER :  0 ,  1 ,  5

NEW POWER LEVEL (WATTS) =  100

********************NEAR ELECTRIC FIELDS********************
         FIELD POINT: X = -2         Y = -2         Z =  0       
  VECTOR      REAL          IMAGINARY     MAGNITUDE     PHASE
 COMPONENT     V/M           V/M           V/M           DEG
   X          -12.95559     -9.076049      15.8184      -144.9868
   Y          -4.417624     -6.495085      7.855032     -124.2215
   Z           0             0             0             0
   MAXIMUM OR PEAK FIELD =  17.48063 V/M

********************NEAR ELECTRIC FIELDS********************
         FIELD POINT: X = -1         Y = -2         Z =  0       
  VECTOR      REAL          IMAGINARY     MAGNITUDE     PHASE
 COMPONENT     V/M           V/M           V/M           DEG
   X          -15.7759      -13.07942      20.49268     -140.3387
   Y          -7.965333     -12.21895      14.58593     -123.0997
   Z           0             0             0             0
   MAXIMUM OR PEAK FIELD =  24.90068 V/M

********************NEAR ELECTRIC FIELDS********************
         FIELD POINT: X =  0         Y = -2         Z =  0       
  VECTOR      REAL          IMAGINARY     MAGNITUDE     PHASE
 COMPONENT     V/M           V/M           V/M           DEG
   X          -17.22951     -15.05373      22.87949     -138.8557
   Y          -13.96661     -21.90506      25.9788      -122.5215
   Z           0             0             0             0
   MAXIMUM OR PEAK FIELD =  34.27212 V/M

********************NEAR ELECTRIC FIELDS********************
         FIELD POINT: X =  1         Y = -2         Z =  0       
  VECTOR      REAL          IMAGINARY     MAGNITUDE     PHASE
 COMPONENT     V/M           V/M           V/M           DEG
   X          -15.41355     -12.01956      19.54603     -142.0527
   Y          -19.42153     -30.93821      36.52901     -122.1186
   Z           0             0             0             0
   MAXIMUM OR PEAK FIELD =  41.00205 V/M

********************NEAR ELECTRIC FIELDS********************
         FIELD POINT: X =  2         Y = -2         Z =  0       
  VECTOR      REAL          IMAGINARY     MAGNITUDE     PHASE
 COMPONENT     V/M           V/M           V/M           DEG
   X          -12.38614     -7.110134      14.28183     -150.1425
   Y          -21.26366     -34.62032      40.62892     -121.5581
   Z           0             0             0             0
   MAXIMUM OR PEAK FIELD =  42.56932 V/M

********************NEAR ELECTRIC FIELDS********************
         FIELD POINT: X = -2         Y = -1         Z =  0       
  VECTOR      REAL          IMAGINARY     MAGNITUDE     PHASE
 COMPONENT     V/M           V/M           V/M           DEG
   X          -15.79428     -13.44822      20.74401     -139.5869
   Y          -3.141438     -4.725485      5.674402     -123.6154
   Z           0             0             0             0
   MAXIMUM OR PEAK FIELD =  21.45305 V/M

********************NEAR ELECTRIC FIELDS********************
         FIELD POINT: X = -1         Y = -1         Z =  0       
  VECTOR      REAL          IMAGINARY     MAGNITUDE     PHASE
 COMPONENT     V/M           V/M           V/M           DEG
   X          -23.36501     -24.98663      34.20899     -133.0791
   Y          -8.412662     -13.10897      15.5762      -122.6903
   Z           0             0             0             0
   MAXIMUM OR PEAK FIELD =  37.50077 V/M

********************NEAR ELECTRIC FIELDS********************
         FIELD POINT: X =  0         Y = -1         Z =  0       
  VECTOR      REAL          IMAGINARY     MAGNITUDE     PHASE
 COMPONENT     V/M           V/M           V/M           DEG
   X          -31.56328     -37.72901      49.19064     -129.9151
   Y          -28.37281     -44.70594      52.94939     -122.4014
   Z           0             0             0             0
   MAXIMUM OR PEAK FIELD =  72.11833 V/M

********************NEAR ELECTRIC FIELDS********************
         FIELD POINT: X =  1         Y = -1         Z =  0       
  VECTOR      REAL          IMAGINARY     MAGNITUDE     PHASE
 COMPONENT     V/M           V/M           V/M           DEG
   X          -22.32262     -23.44843      32.37481     -133.591
   Y          -47.52812     -75.35594      89.09232     -122.2402
   Z           0             0             0             0
   MAXIMUM OR PEAK FIELD =  94.60212 V/M

********************NEAR ELECTRIC FIELDS********************
         FIELD POINT: X =  2         Y = -1         Z =  0       
  VECTOR      REAL          IMAGINARY     MAGNITUDE     PHASE
 COMPONENT     V/M           V/M           V/M           DEG
   X          -13.07031     -9.598337      16.21607     -143.7079
   Y          -48.51476     -78.71701      92.46648     -121.6463
   Z           0             0             0             0
   MAXIMUM OR PEAK FIELD =  93.68496 V/M

********************NEAR ELECTRIC FIELDS********************
         FIELD POINT: X = -2         Y =  0         Z =  0       
  VECTOR      REAL          IMAGINARY     MAGNITUDE     PHASE
 COMPONENT     V/M           V/M           V/M           DEG
   X          -17.36466     -15.89128      23.53857     -137.5368
   Y           0             0             0             0
   Z           0             0             0             0
   MAXIMUM OR PEAK FIELD =  23.53857 V/M

********************NEAR ELECTRIC FIELDS********************
         FIELD POINT: X = -1         Y =  0         Z =  0       
  VECTOR      REAL          IMAGINARY     MAGNITUDE     PHASE
 COMPONENT     V/M           V/M           V/M           DEG
   X          -31.81426     -38.28469      49.77815     -129.7263
   Y           0             0             0             0
   Z           0             0             0             0
   MAXIMUM OR PEAK FIELD =  49.77815 V/M

********************NEAR ELECTRIC FIELDS********************
         FIELD POINT: X =  0         Y =  0         Z =  0       
  VECTOR      REAL          IMAGINARY     MAGNITUDE     PHASE
 COMPONENT     V/M           V/M           V/M           DEG
   X          -2200.187     -3451.658      4093.258     -122.5146
   Y           0             0             0             0
   Z           0             0             0             0
   MAXIMUM OR PEAK FIELD =  4093.258 V/M

********************NEAR ELECTRIC FIELDS********************
         FIELD POINT: X =  1         Y =  0         Z =  0       
  VECTOR      REAL          IMAGINARY     MAGNITUDE     PHASE
 COMPONENT     V/M           V/M           V/M           DEG
   X           549.9756      876.882       1035.082      57.90429
   Y           0             0             0             0
   Z           0             0             0             0
   MAXIMUM OR PEAK FIELD =  1035.082 V/M

********************NEAR ELECTRIC FIELDS********************
         FIELD POINT: X =  2         Y =  0         Z =  0       
  VECTOR      REAL          IMAGINARY     MAGNITUDE     PHASE
 COMPONENT     V/M           V/M           V/M           DEG
   X           838.7214      1314.8        1559.536      57.46587
   Y           0             0             0             0
   Z           0             0             0             0
   MAXIMUM OR PEAK FIELD =  1559.536 V/M

********************NEAR ELECTRIC FIELDS********************
         FIELD POINT: X = -2         Y =  1         Z =  0       
  VECTOR      REAL          IMAGINARY     MAGNITUDE     PHASE
 COMPONENT     V/M           V/M           V/M           DEG
   X          -15.79428     -13.44822      20.74401     -139.5869
   Y           3.141438      4.725485      5.674402      56.38458
   Z           0             0             0             0
   MAXIMUM OR PEAK FIELD =  21.45305 V/M

********************NEAR ELECTRIC FIELDS********************
         FIELD POINT: X = -1         Y =  1         Z =  0       
  VECTOR      REAL          IMAGINARY     MAGNITUDE     PHASE
 COMPONENT     V/M           V/M           V/M           DEG
   X          -23.36501     -24.98663      34.20899     -133.0791
   Y           8.412662      13.10897      15.5762       57.30975
   Z           0             0             0             0
   MAXIMUM OR PEAK FIELD =  37.50077 V/M

********************NEAR ELECTRIC FIELDS********************
         FIELD POINT: X =  0         Y =  1         Z =  0       
  VECTOR      REAL          IMAGINARY     MAGNITUDE     PHASE
 COMPONENT     V/M           V/M           V/M           DEG
   X          -31.56328     -37.72901      49.19064     -129.9151
   Y           28.37281      44.70594      52.94939      57.59858
   Z           0             0             0             0
   MAXIMUM OR PEAK FIELD =  72.11833 V/M

********************NEAR ELECTRIC FIELDS********************
         FIELD POINT: X =  1         Y =  1         Z =  0       
  VECTOR      REAL          IMAGINARY     MAGNITUDE     PHASE
 COMPONENT     V/M           V/M           V/M           DEG
   X          -22.32262     -23.44843      32.37481     -133.591
   Y           47.52812      75.35594      89.09232      57.75975
   Z           0             0             0             0
   MAXIMUM OR PEAK FIELD =  94.60212 V/M

********************NEAR ELECTRIC FIELDS********************
         FIELD POINT: X =  2         Y =  1         Z =  0       
  VECTOR      REAL          IMAGINARY     MAGNITUDE     PHASE
 COMPONENT     V/M           V/M           V/M           DEG
   X          -13.07031     -9.598337      16.21607     -143.7079
   Y           48.51476      78.71701      92.46648      58.3537
   Z           0             0             0             0
   MAXIMUM OR PEAK FIELD =  93.68496 V/M

********************NEAR ELECTRIC FIELDS********************
         FIELD POINT: X = -2         Y =  2         Z =  0       
  VECTOR      REAL          IMAGINARY     MAGNITUDE     PHASE
 COMPONENT     V/M           V/M           V/M           DEG
   X          -12.95559     -9.076049      15.8184      -144.9868
   Y           4.417624      6.495085      7.855032      55.77847
   Z           0             0             0             0
   MAXIMUM OR PEAK FIELD =  17.48063 V/M

********************NEAR ELECTRIC FIELDS********************
         FIELD POINT: X = -1         Y =  2         Z =  0       
  VECTOR      REAL          IMAGINARY     MAGNITUDE     PHASE
 COMPONENT     V/M           V/M           V/M           DEG
   X          -15.7759      -13.07942      20.49268     -140.3387
   Y           7.965333      12.21895      14.58593      56.90033
   Z           0             0             0             0
   MAXIMUM OR PEAK FIELD =  24.90068 V/M

********************NEAR ELECTRIC FIELDS********************
         FIELD POINT: X =  0         Y =  2         Z =  0       
  VECTOR      REAL          IMAGINARY     MAGNITUDE     PHASE
 COMPONENT     V/M           V/M           V/M           DEG
   X          -17.22951     -15.05373      22.87949     -138.8557
   Y           13.96661      21.90506      25.9788       57.47851
   Z           0             0             0             0
   MAXIMUM OR PEAK FIELD =  34.27212 V/M

********************NEAR ELECTRIC FIELDS********************
         FIELD POINT: X =  1         Y =  2         Z =  0       
  VECTOR      REAL          IMAGINARY     MAGNITUDE     PHASE
 COMPONENT     V/M           V/M           V/M           DEG
   X          -15.41355     -12.01956      19.54603     -142.0527
   Y           19.42153      30.93821      36.52901      57.88137
   Z           0             0             0             0
   MAXIMUM OR PEAK FIELD =  41.00205 V/M

********************NEAR ELECTRIC FIELDS********************
         FIELD POINT: X =  2         Y =  2         Z =  0       
  VECTOR      REAL          IMAGINARY     MAGNITUDE     PHASE
 COMPONENT     V/M           V/M           V/M           DEG
   X          -12.38614     -7.110134      14.28183     -150.1425
   Y           21.26366      34.62032      40.62892      58.44192
   Z           0             0             0             0
   MAXIMUM OR PEAK FIELD =  42.56932 V/M

********************NEAR ELECTRIC FIELDS********************
         FIELD POINT: X = -2         Y = -2         Z =  1       
  VECTOR      REAL          IMAGINARY     MAGNITUDE     PHASE
 COMPONENT     V/M           V/M           V/M           DEG
   X          -12.32858     -8.123724      14.76444     -146.6177
   Y          -4.039736     -5.894684      7.146101     -124.4236
   Z           2.019838      2.947294      3.572994      55.5764
   MAXIMUM OR PEAK FIELD =  16.57078 V/M

********************NEAR ELECTRIC FIELDS********************
         FIELD POINT: X = -1         Y = -2         Z =  1       
  VECTOR      REAL          IMAGINARY     MAGNITUDE     PHASE
 COMPONENT     V/M           V/M           V/M           DEG
   X          -14.61712     -11.27608      18.46104     -142.3523
   Y          -6.831936     -10.42128      12.46108     -123.2479
   Z           3.415835      5.210431      6.230291      56.7521
   MAXIMUM OR PEAK FIELD =  22.83227 V/M

********************NEAR ELECTRIC FIELDS********************
         FIELD POINT: X =  0         Y = -2         Z =  1       
  VECTOR      REAL          IMAGINARY     MAGNITUDE     PHASE
 COMPONENT     V/M           V/M           V/M           DEG
   X          -15.70494     -12.64387      20.16216     -141.1629
   Y          -11.14056     -17.4203       20.67798     -122.5996
   Z           5.569863      8.70949       10.33821      57.40041
   MAXIMUM OR PEAK FIELD =  30.28129 V/M

********************NEAR ELECTRIC FIELDS********************
         FIELD POINT: X =  1         Y = -2         Z =  1       
  VECTOR      REAL          IMAGINARY     MAGNITUDE     PHASE
 COMPONENT     V/M           V/M           V/M           DEG
   X          -14.36755     -10.30214      17.67938     -144.3579
   Y          -15.01835     -23.90168      28.22838     -122.1427
   Z           7.508489      11.94975      14.1129       57.85726
   MAXIMUM OR PEAK FIELD =  35.68802 V/M

********************NEAR ELECTRIC FIELDS********************
         FIELD POINT: X =  2         Y = -2         Z =  1       
  VECTOR      REAL          IMAGINARY     MAGNITUDE     PHASE
 COMPONENT     V/M           V/M           V/M           DEG
   X          -11.97872     -6.325322      13.5462      -152.1639
   Y          -16.51061     -26.86207      31.53048     -121.5767
   Z           8.254579      13.42985      15.76385      58.42329
   MAXIMUM OR PEAK FIELD =  37.19533 V/M

********************NEAR ELECTRIC FIELDS********************
         FIELD POINT: X = -2         Y = -1         Z =  1       
  VECTOR      REAL          IMAGINARY     MAGNITUDE     PHASE
 COMPONENT     V/M           V/M           V/M           DEG
   X          -14.62358     -11.63604      18.68814     -141.4906
   Y          -2.742925     -4.094596      4.928424     -123.8177
   Z           2.742925      4.094596      4.928424      56.1823
   MAXIMUM OR PEAK FIELD =  19.84579 V/M

********************NEAR ELECTRIC FIELDS********************
         FIELD POINT: X = -1         Y = -1         Z =  1       
  VECTOR      REAL          IMAGINARY     MAGNITUDE     PHASE
 COMPONENT     V/M           V/M           V/M           DEG
   X          -19.59583     -19.06182      27.33769     -135.7914
   Y          -6.075308     -9.419785      11.209       -122.8201
   Z           6.075308      9.419785      11.209        57.17993
   MAXIMUM OR PEAK FIELD =  31.44943 V/M

********************NEAR ELECTRIC FIELDS********************
         FIELD POINT: X =  0         Y = -1         Z =  1       
  VECTOR      REAL          IMAGINARY     MAGNITUDE     PHASE
 COMPONENT     V/M           V/M           V/M           DEG
   X          -23.17489     -24.46871      33.70153     -133.4445
   Y          -14.09212     -22.19146      26.2878      -122.4165
   Z           14.09212      22.19146      26.2878       57.58345
   MAXIMUM OR PEAK FIELD =  49.94865 V/M

********************NEAR ELECTRIC FIELDS********************
         FIELD POINT: X =  1         Y = -1         Z =  1       
  VECTOR      REAL          IMAGINARY     MAGNITUDE     PHASE
 COMPONENT     V/M           V/M           V/M           DEG
   X          -18.86516     -17.72517      25.88583     -136.7845
   Y          -21.59611     -34.35672      40.58049     -122.1528
   Z           21.59611      34.35672      40.58049      57.84716
   MAXIMUM OR PEAK FIELD =  62.67197 V/M

********************NEAR ELECTRIC FIELDS********************
         FIELD POINT: X =  2         Y = -1         Z =  1       
  VECTOR      REAL          IMAGINARY     MAGNITUDE     PHASE
 COMPONENT     V/M           V/M           V/M           DEG
   X          -13.17936     -8.950398      15.93127     -145.8187
   Y          -22.97969     -37.38097      43.87941     -121.5808
   Z           22.97969      37.38097      43.87941      58.41917
   MAXIMUM OR PEAK FIELD =  63.75015 V/M

********************NEAR ELECTRIC FIELDS********************
         FIELD POINT: X = -2         Y =  0         Z =  1       
  VECTOR      REAL          IMAGINARY     MAGNITUDE     PHASE
 COMPONENT     V/M           V/M           V/M           DEG
   X          -15.79428     -13.44822      20.74401     -139.5869
   Y           0             0             0             0
   Z           3.141438      4.725485      5.674402      56.38458
   MAXIMUM OR PEAK FIELD =  21.45305 V/M

********************NEAR ELECTRIC FIELDS********************
         FIELD POINT: X = -1         Y =  0         Z =  1       
  VECTOR      REAL          IMAGINARY     MAGNITUDE     PHASE
 COMPONENT     V/M           V/M           V/M           DEG
   X          -23.36501     -24.98663      34.20899     -133.0791
   Y           0             0             0             0
   Z           8.412662      13.10897      15.5762       57.30975
   MAXIMUM OR PEAK FIELD =  37.50077 V/M

********************NEAR ELECTRIC FIELDS********************
         FIELD POINT: X =  0         Y =  0         Z =  1       
  VECTOR      REAL          IMAGINARY     MAGNITUDE     PHASE
 COMPONENT     V/M           V/M           V/M           DEG
   X          -31.56328     -37.72901      49.19064     -129.9151
   Y           0             0             0             0
   Z           28.37281      44.70594      52.94939      57.59858
   MAXIMUM OR PEAK FIELD =  72.11833 V/M

********************NEAR ELECTRIC FIELDS********************
         FIELD POINT: X =  1         Y =  0         Z =  1       
  VECTOR      REAL          IMAGINARY     MAGNITUDE     PHASE
 COMPONENT     V/M           V/M           V/M           DEG
   X          -22.32262     -23.44843      32.37481     -133.591
   Y           0             0             0             0
   Z           47.52812      75.35594      89.09232      57.75975
   MAXIMUM OR PEAK FIELD =  94.60212 V/M

********************NEAR ELECTRIC FIELDS********************
         FIELD POINT: X =  2         Y =  0         Z =  1       
  VECTOR      REAL          IMAGINARY     MAGNITUDE     PHASE
 COMPONENT     V/M           V/M           V/M           DEG
   X          -13.07031     -9.598337      16.21607     -143.7079
   Y           0             0             0             0
   Z           48.51476      78.71701      92.46648      58.3537
   MAXIMUM OR PEAK FIELD =  93.68496 V/M

********************NEAR ELECTRIC FIELDS********************
         FIELD POINT: X = -2         Y =  1         Z =  1       
  VECTOR      REAL          IMAGINARY     MAGNITUDE     PHASE
 COMPONENT     V/M           V/M           V/M           DEG
   X          -14.62358     -11.63604      18.68814     -141.4906
   Y           2.742925      4.094596      4.928424      56.1823
   Z           2.742925      4.094596      4.928424      56.1823
   MAXIMUM OR PEAK FIELD =  19.84579 V/M

********************NEAR ELECTRIC FIELDS********************
         FIELD POINT: X = -1         Y =  1         Z =  1       
  VECTOR      REAL          IMAGINARY     MAGNITUDE     PHASE
 COMPONENT     V/M           V/M           V/M           DEG
   X          -19.59583     -19.06182      27.33769     -135.7914
   Y           6.075308      9.419785      11.209        57.17993
   Z           6.075308      9.419785      11.209        57.17993
   MAXIMUM OR PEAK FIELD =  31.44943 V/M

********************NEAR ELECTRIC FIELDS********************
         FIELD POINT: X =  0         Y =  1         Z =  1       
  VECTOR      REAL          IMAGINARY     MAGNITUDE     PHASE
 COMPONENT     V/M           V/M           V/M           DEG
   X          -23.17489     -24.46871      33.70153     -133.4445
   Y           14.09212      22.19146      26.2878       57.58345
   Z           14.09212      22.19146      26.2878       57.58345
   MAXIMUM OR PEAK FIELD =  49.94865 V/M

********************NEAR ELECTRIC FIELDS********************
         FIELD POINT: X =  1         Y =  1         Z =  1       
  VECTOR      REAL          IMAGINARY     MAGNITUDE     PHASE
 COMPONENT     V/M           V/M           V/M           DEG
   X          -18.86516     -17.72517      25.88583     -136.7845
   Y           21.59611      34.35672      40.58049      57.84716
   Z           21.59611      34.35672      40.58049      57.84716
   MAXIMUM OR PEAK FIELD =  62.67197 V/M

********************NEAR ELECTRIC FIELDS********************
         FIELD POINT: X =  2         Y =  1         Z =  1       
  VECTOR      REAL          IMAGINARY     MAGNITUDE     PHASE
 COMPONENT     V/M           V/M           V/M           DEG
   X          -13.17936     -8.950398      15.93127     -145.8187
   Y           22.97969      37.38097      43.87941      58.41917
   Z           22.97969      37.38097      43.87941      58.41917
   MAXIMUM OR PEAK FIELD =  63.75015 V/M

********************NEAR ELECTRIC FIELDS********************
         FIELD POINT: X = -2         Y =  2         Z =  1       
  VECTOR      REAL          IMAGINARY     MAGNITUDE     PHASE
 COMPONENT     V/M           V/M           V/M           DEG
   X          -12.32858     -8.123724      14.76444     -146.6177
   Y           4.039736      5.894684      7.146101      55.57643
   Z           2.019838      2.947294      3.572994      55.5764
   MAXIMUM OR PEAK FIELD =  16.57078 V/M

********************NEAR ELECTRIC FIELDS********************
         FIELD POINT: X = -1         Y =  2         Z =  1       
  VECTOR      REAL          IMAGINARY     MAGNITUDE     PHASE
 COMPONENT     V/M           V/M           V/M           DEG
   X          -14.61712     -11.27608      18.46104     -142.3523
   Y           6.831936      10.42128      12.46108      56.75214
   Z           3.415835      5.210431      6.230291      56.7521
   MAXIMUM OR PEAK FIELD =  22.83227 V/M

********************NEAR ELECTRIC FIELDS********************
         FIELD POINT: X =  0         Y =  2         Z =  1       
  VECTOR      REAL          IMAGINARY     MAGNITUDE     PHASE
 COMPONENT     V/M           V/M           V/M           DEG
   X          -15.70494     -12.64387      20.16216     -141.1629
   Y           11.14056      17.4203       20.67798      57.40043
   Z           5.569863      8.70949       10.33821      57.40041
   MAXIMUM OR PEAK FIELD =  30.28129 V/M

********************NEAR ELECTRIC FIELDS********************
         FIELD POINT: X =  1         Y =  2         Z =  1       
  VECTOR      REAL          IMAGINARY     MAGNITUDE     PHASE
 COMPONENT     V/M           V/M           V/M           DEG
   X          -14.36755     -10.30214      17.67938     -144.3579
   Y           15.01835      23.90168      28.22838      57.85726
   Z           7.508489      11.94975      14.1129       57.85726
   MAXIMUM OR PEAK FIELD =  35.68802 V/M

********************NEAR ELECTRIC FIELDS********************
         FIELD POINT: X =  2         Y =  2         Z =  1       
  VECTOR      REAL          IMAGINARY     MAGNITUDE     PHASE
 COMPONENT     V/M           V/M           V/M           DEG
   X          -11.97872     -6.325322      13.5462      -152.1639
   Y           16.51061      26.86207      31.53048      58.42328
   Z           8.254579      13.42985      15.76385      58.42329
   MAXIMUM OR PEAK FIELD =  37.19533 V/M

********************NEAR ELECTRIC FIELDS********************
         FIELD POINT: X = -2         Y = -2         Z =  2       
  VECTOR      REAL          IMAGINARY     MAGNITUDE     PHASE
 COMPONENT     V/M           V/M           V/M           DEG
   X          -10.91356     -6.006196      12.45713     -151.1741
   Y          -3.242982     -4.626157      5.649625     -125.0308
   Z           3.242982      4.626157      5.649625      54.96916
   MAXIMUM OR PEAK FIELD =  14.48627 V/M

********************NEAR ELECTRIC FIELDS********************
         FIELD POINT: X = -1         Y = -2         Z =  2       
  VECTOR      REAL          IMAGINARY     MAGNITUDE     PHASE
 COMPONENT     V/M           V/M           V/M           DEG
   X          -12.34976     -7.784726      14.59858     -147.7745
   Y          -4.838903     -7.250851      8.717214     -123.7174
   Z           4.838903      7.250851      8.717214      56.28257
   MAXIMUM OR PEAK FIELD =  18.70046 V/M

********************NEAR ELECTRIC FIELDS********************
         FIELD POINT: X =  0         Y = -2         Z =  2       
  VECTOR      REAL          IMAGINARY     MAGNITUDE     PHASE
 COMPONENT     V/M           V/M           V/M           DEG
   X          -12.96525     -8.344963      15.41869     -147.233
   Y          -6.932554     -10.71632      12.76322     -122.8994
   Z           6.932554      10.71632      12.76322      57.10055
   MAXIMUM OR PEAK FIELD =  23.21948 V/M

********************NEAR ELECTRIC FIELDS********************
         FIELD POINT: X =  1         Y = -2         Z =  2       
  VECTOR      REAL          IMAGINARY     MAGNITUDE     PHASE
 COMPONENT     V/M           V/M           V/M           DEG
   X          -12.31056     -6.968592      14.14606     -150.4873
   Y          -8.77576      -13.87622      16.41839     -122.3106
   Z           8.77576       13.87622      16.41839      57.68945
   MAXIMUM OR PEAK FIELD =  26.55417 V/M

********************NEAR ELECTRIC FIELDS********************
         FIELD POINT: X =  2         Y = -2         Z =  2       
  VECTOR      REAL          IMAGINARY     MAGNITUDE     PHASE
 COMPONENT     V/M           V/M           V/M           DEG
   X          -10.94652     -4.485343      11.82982     -157.7186
   Y          -9.642703     -15.60719      18.34574     -121.7093
   Z           9.642703      15.60719      18.34574      58.29069
   MAXIMUM OR PEAK FIELD =  27.76395 V/M

********************NEAR ELECTRIC FIELDS********************
         FIELD POINT: X = -2         Y = -1         Z =  2       
  VECTOR      REAL          IMAGINARY     MAGNITUDE     PHASE
 COMPONENT     V/M           V/M           V/M           DEG
   X          -12.32858     -8.123724      14.76444     -146.6177
   Y          -2.019838     -2.947294      3.572994     -124.4236
   Z           4.039736      5.894684      7.146101      55.57643
   MAXIMUM OR PEAK FIELD =  16.57078 V/M

********************NEAR ELECTRIC FIELDS********************
         FIELD POINT: X = -1         Y = -1         Z =  2       
  VECTOR      REAL          IMAGINARY     MAGNITUDE     PHASE
 COMPONENT     V/M           V/M           V/M           DEG
   X          -14.61712     -11.27608      18.46104     -142.3523
   Y          -3.415835     -5.210431      6.230291     -123.2479
   Z           6.831936      10.42128      12.46108      56.75214
   MAXIMUM OR PEAK FIELD =  22.83227 V/M

********************NEAR ELECTRIC FIELDS********************
         FIELD POINT: X =  0         Y = -1         Z =  2       
  VECTOR      REAL          IMAGINARY     MAGNITUDE     PHASE
 COMPONENT     V/M           V/M           V/M           DEG
   X          -15.70494     -12.64387      20.16216     -141.1629
   Y          -5.569863     -8.70949       10.33821     -122.5996
   Z           11.14056      17.4203       20.67798      57.40043
   MAXIMUM OR PEAK FIELD =  30.28129 V/M

********************NEAR ELECTRIC FIELDS********************
         FIELD POINT: X =  1         Y = -1         Z =  2       
  VECTOR      REAL          IMAGINARY     MAGNITUDE     PHASE
 COMPONENT     V/M           V/M           V/M           DEG
   X          -14.36755     -10.30214      17.67938     -144.3579
   Y          -7.508489     -11.94975      14.1129      -122.1427
   Z           15.01835      23.90168      28.22838      57.85726
   MAXIMUM OR PEAK FIELD =  35.68802 V/M

********************NEAR ELECTRIC FIELDS********************
         FIELD POINT: X =  2         Y = -1         Z =  2       
  VECTOR      REAL          IMAGINARY     MAGNITUDE     PHASE
 COMPONENT     V/M           V/M           V/M           DEG
   X          -11.97872     -6.325322      13.5462      -152.1639
   Y          -8.254579     -13.42985      15.76385     -121.5767
   Z           16.51061      26.86207      31.53048      58.42328
   MAXIMUM OR PEAK FIELD =  37.19533 V/M

********************NEAR ELECTRIC FIELDS********************
         FIELD POINT: X = -2         Y =  0         Z =  2       
  VECTOR      REAL          IMAGINARY     MAGNITUDE     PHASE
 COMPONENT     V/M           V/M           V/M           DEG
   X          -12.95559     -9.076049      15.8184      -144.9868
   Y           0             0             0             0
   Z           4.417624      6.495085      7.855032      55.77847
   MAXIMUM OR PEAK FIELD =  17.48063 V/M

********************NEAR ELECTRIC FIELDS********************
         FIELD POINT: X = -1         Y =  0         Z =  2       
  VECTOR      REAL          IMAGINARY     MAGNITUDE     PHASE
 COMPONENT     V/M           V/M           V/M           DEG
   X          -15.7759      -13.07942      20.49268     -140.3387
   Y           0             0             0             0
   Z           7.965333      12.21895      14.58593      56.90033
   MAXIMUM OR PEAK FIELD =  24.90068 V/M

********************NEAR ELECTRIC FIELDS********************
         FIELD POINT: X =  0         Y =  0         Z =  2       
  VECTOR      REAL          IMAGINARY     MAGNITUDE     PHASE
 COMPONENT     V/M           V/M           V/M           DEG
   X          -17.22951     -15.05373      22.87949     -138.8557
   Y           0             0             0             0
   Z           13.96661      21.90506      25.9788       57.47851
   MAXIMUM OR PEAK FIELD =  34.27212 V/M

********************NEAR ELECTRIC FIELDS********************
         FIELD POINT: X =  1         Y =  0         Z =  2       
  VECTOR      REAL          IMAGINARY     MAGNITUDE     PHASE
 COMPONENT     V/M           V/M           V/M           DEG
   X          -15.41355     -12.01956      19.54603     -142.0527
   Y           0             0             0             0
   Z           19.42153      30.93821      36.52901      57.88137
   MAXIMUM OR PEAK FIELD =  41.00205 V/M

********************NEAR ELECTRIC FIELDS********************
         FIELD POINT: X =  2         Y =  0         Z =  2       
  VECTOR      REAL          IMAGINARY     MAGNITUDE     PHASE
 COMPONENT     V/M           V/M           V/M           DEG
   X          -12.38614     -7.110134      14.28183     -150.1425
   Y           0             0             0             0
   Z           21.26366      34.62032      40.62892      58.44192
   MAXIMUM OR PEAK FIELD =  42.56932 V/M

********************NEAR ELECTRIC FIELDS********************
         FIELD POINT: X = -2         Y =  1         Z =  2       
  VECTOR      REAL          IMAGINARY     MAGNITUDE     PHASE
 COMPONENT     V/M           V/M           V/M           DEG
   X          -12.32858     -8.123724      14.76444     -146.6177
   Y           2.019838      2.947294      3.572994      55.5764
   Z           4.039736      5.894684      7.146101      55.57643
   MAXIMUM OR PEAK FIELD =  16.57078 V/M

********************NEAR ELECTRIC FIELDS********************
         FIELD POINT: X = -1         Y =  1         Z =  2       
  VECTOR      REAL          IMAGINARY     MAGNITUDE     PHASE
 COMPONENT     V/M           V/M           V/M           DEG
   X          -14.61712     -11.27608      18.46104     -142.3523
   Y           3.415835      5.210431      6.230291      56.7521
   Z           6.831936      10.42128      12.46108      56.75214
   MAXIMUM OR PEAK FIELD =  22.83227 V/M

********************NEAR ELECTRIC FIELDS********************
         FIELD POINT: X =  0         Y =  1         Z =  2       
  VECTOR      REAL          IMAGINARY     MAGNITUDE     PHASE
 COMPONENT     V/M           V/M           V/M           DEG
   X          -15.70494     -12.64387      20.16216     -141.1629
   Y           5.569863      8.70949       10.33821      57.40041
   Z           11.14056      17.4203       20.67798      57.40043
   MAXIMUM OR PEAK FIELD =  30.28129 V/M

********************NEAR ELECTRIC FIELDS********************
         FIELD POINT: X =  1         Y =  1         Z =  2       
  VECTOR      REAL          IMAGINARY     MAGNITUDE     PHASE
 COMPONENT     V/M           V/M           V/M           DEG
   X          -14.36755     -10.30214      17.67938     -144.3579
   Y           7.508489      11.94975      14.1129       57.85726
   Z           15.01835      23.90168      28.22838      57.85726
   MAXIMUM OR PEAK FIELD =  35.68802 V/M

********************NEAR ELECTRIC FIELDS********************
         FIELD POINT: X =  2         Y =  1         Z =  2       
  VECTOR      REAL          IMAGINARY     MAGNITUDE     PHASE
 COMPONENT     V/M           V/M           V/M           DEG
   X          -11.97872     -6.325322      13.5462      -152.1639
   Y           8.254579      13.42985      15.76385      58.42329
   Z           16.51061      26.86207      31.53048      58.42328
   MAXIMUM OR PEAK FIELD =  37.19533 V/M

********************NEAR ELECTRIC FIELDS********************
         FIELD POINT: X = -2         Y =  2         Z =  2       
  VECTOR      REAL          IMAGINARY     MAGNITUDE     PHASE
 COMPONENT     V/M           V/M           V/M           DEG
   X          -10.91356     -6.006196      12.45713     -151.1741
   Y           3.242982      4.626157      5.649625      54.96916
   Z           3.242982      4.626157      5.649625      54.96916
   MAXIMUM OR PEAK FIELD =  14.48627 V/M

********************NEAR ELECTRIC FIELDS********************
         FIELD POINT: X = -1         Y =  2         Z =  2       
  VECTOR      REAL          IMAGINARY     MAGNITUDE     PHASE
 COMPONENT     V/M           V/M           V/M           DEG
   X          -12.34976     -7.784726      14.59858     -147.7745
   Y           4.838903      7.250851      8.717214      56.28257
   Z           4.838903      7.250851      8.717214      56.28257
   MAXIMUM OR PEAK FIELD =  18.70046 V/M

********************NEAR ELECTRIC FIELDS********************
         FIELD POINT: X =  0         Y =  2         Z =  2       
  VECTOR      REAL          IMAGINARY     MAGNITUDE     PHASE
 COMPONENT     V/M           V/M           V/M           DEG
   X          -12.96525     -8.344963      15.41869     -147.233
   Y           6.932554      10.71632      12.76322      57.10055
   Z           6.932554      10.71632      12.76322      57.10055
   MAXIMUM OR PEAK FIELD =  23.21948 V/M

********************NEAR ELECTRIC FIELDS********************
         FIELD POINT: X =  1         Y =  2         Z =  2       
  VECTOR      REAL          IMAGINARY     MAGNITUDE     PHASE
 COMPONENT     V/M           V/M           V/M           DEG
   X          -12.31056     -6.968592      14.14606     -150.4873
   Y           8.77576       13.87622      16.41839      57.68945
   Z           8.77576       13.87622      16.41839      57.68945
   MAXIMUM OR PEAK FIELD =  26.55417 V/M

********************NEAR ELECTRIC FIELDS********************
         FIELD POINT: X =  2         Y =  2         Z =  2       
  VECTOR      REAL          IMAGINARY     MAGNITUDE     PHASE
 COMPONENT     V/M           V/M           V/M           DEG
   X          -10.94652     -4.485343      11.82982     -157.7186
   Y           9.642703      15.60719      18.34574      58.29069
   Z           9.642703      15.60719      18.34574      58.29069
   MAXIMUM OR PEAK FIELD =  27.76395 V/M

********************NEAR ELECTRIC FIELDS********************
         FIELD POINT: X = -2         Y = -2         Z =  3       
  VECTOR      REAL          IMAGINARY     MAGNITUDE     PHASE
 COMPONENT     V/M           V/M           V/M           DEG
   X          -9.382113     -3.793256      10.11992     -157.9862
   Y          -2.48281      -3.41149       4.219314     -126.0463
   Z           3.724242      5.117277      6.329021      53.95369
   MAXIMUM OR PEAK FIELD =  12.21283 V/M

********************NEAR ELECTRIC FIELDS********************
         FIELD POINT: X = -1         Y = -2         Z =  3       
  VECTOR      REAL          IMAGINARY     MAGNITUDE     PHASE
 COMPONENT     V/M           V/M           V/M           DEG
   X          -10.26426     -4.666503      11.27525     -155.5517
   Y          -3.314471     -4.812412      5.843375     -124.5565
   Z           4.971769      7.218716      8.765178      55.44353
   MAXIMUM OR PEAK FIELD =  14.87245 V/M

********************NEAR ELECTRIC FIELDS********************
         FIELD POINT: X =  0         Y = -2         Z =  3       
  VECTOR      REAL          IMAGINARY     MAGNITUDE     PHASE
 COMPONENT     V/M           V/M           V/M           DEG
   X          -10.64892     -4.805149      11.68285     -155.7135
   Y          -4.272054     -6.446303      7.733386     -123.533
   Z           6.408197      9.66964       11.6003       56.46704
   MAXIMUM OR PEAK FIELD =  17.50122 V/M

********************NEAR ELECTRIC FIELDS********************
         FIELD POINT: X =  1         Y = -2         Z =  3       
  VECTOR      REAL          IMAGINARY     MAGNITUDE     PHASE
 COMPONENT     V/M           V/M           V/M           DEG
   X          -10.39258     -3.97173       11.12566     -159.0847
   Y          -5.092122     -7.908615      9.406163     -122.7763
   Z           7.638348      11.86319      14.10956      57.22374
   MAXIMUM OR PEAK FIELD =  19.45125 V/M

********************NEAR ELECTRIC FIELDS********************
         FIELD POINT: X =  2         Y = -2         Z =  3       
  VECTOR      REAL          IMAGINARY     MAGNITUDE     PHASE
 COMPONENT     V/M           V/M           V/M           DEG
   X          -9.707682     -2.472226      10.01753     -165.7124
   Y          -5.525704     -8.809856      10.39937     -122.0967
   Z           8.288742      13.21509      15.59942      57.90332
   MAXIMUM OR PEAK FIELD =  20.2732  V/M

********************NEAR ELECTRIC FIELDS********************
         FIELD POINT: X = -2         Y = -1         Z =  3       
  VECTOR      REAL          IMAGINARY     MAGNITUDE     PHASE
 COMPONENT     V/M           V/M           V/M           DEG
   X          -10.21426     -4.982675      11.36478     -153.9962
   Y          -1.440759     -2.0246        2.484913     -125.4367
   Z           4.32235       6.073915      7.454874      54.56339
   MAXIMUM OR PEAK FIELD =  13.44722 V/M

********************NEAR ELECTRIC FIELDS********************
         FIELD POINT: X = -1         Y = -1         Z =  3       
  VECTOR      REAL          IMAGINARY     MAGNITUDE     PHASE
 COMPONENT     V/M           V/M           V/M           DEG
   X          -11.36014     -6.288596      12.98458     -151.0326
   Y          -2.037529     -3.015499      3.639335     -124.0463
   Z           6.112783      9.046807      10.91837      55.95373
   MAXIMUM OR PEAK FIELD =  16.87943 V/M

********************NEAR ELECTRIC FIELDS********************
         FIELD POINT: X =  0         Y = -1         Z =  3       
  VECTOR      REAL          IMAGINARY     MAGNITUDE     PHASE
 COMPONENT     V/M           V/M           V/M           DEG
   X          -11.84683     -6.617812      13.56992     -150.8116
   Y          -2.771861     -4.245936      5.07062      -123.1376
   Z           8.315997      12.73846      15.21263      56.86246
   MAXIMUM OR PEAK FIELD =  20.41499 V/M

********************NEAR ELECTRIC FIELDS********************
         FIELD POINT: X =  1         Y = -1         Z =  3       
  VECTOR      REAL          IMAGINARY     MAGNITUDE     PHASE
 COMPONENT     V/M           V/M           V/M           DEG
   X          -11.4047      -5.533705      12.67632     -154.1168
   Y          -3.410809     -5.358881      6.352262     -122.4758
   Z           10.23304      16.07762      19.05794      57.52419
   MAXIMUM OR PEAK FIELD =  23.03504 V/M

********************NEAR ELECTRIC FIELDS********************
         FIELD POINT: X =  2         Y = -1         Z =  3       
  VECTOR      REAL          IMAGINARY     MAGNITUDE     PHASE
 COMPONENT     V/M           V/M           V/M           DEG
   X          -10.39423     -3.563414      10.98808     -161.0769
   Y          -3.731355     -6.007667      7.072134     -121.8444
   Z           11.19474      18.02411      21.2177       58.15566
   MAXIMUM OR PEAK FIELD =  24.06732 V/M

********************NEAR ELECTRIC FIELDS********************
         FIELD POINT: X = -2         Y =  0         Z =  3       
  VECTOR      REAL          IMAGINARY     MAGNITUDE     PHASE
 COMPONENT     V/M           V/M           V/M           DEG
   X          -10.54582     -5.465617      11.87802     -152.6035
   Y           0             0             0             0
   Z           4.57512       6.477573      7.930364      54.76638
   MAXIMUM OR PEAK FIELD =  13.94014 V/M

********************NEAR ELECTRIC FIELDS********************
         FIELD POINT: X = -1         Y =  0         Z =  3       
  VECTOR      REAL          IMAGINARY     MAGNITUDE     PHASE
 COMPONENT     V/M           V/M           V/M           DEG
   X          -11.82054     -6.981674      13.7284      -149.4322
   Y           0             0             0             0
   Z           6.63279       9.87789       11.89818      56.11949
   MAXIMUM OR PEAK FIELD =  17.7268  V/M

********************NEAR ELECTRIC FIELDS********************
         FIELD POINT: X =  0         Y =  0         Z =  3       
  VECTOR      REAL          IMAGINARY     MAGNITUDE     PHASE
 COMPONENT     V/M           V/M           V/M           DEG
   X          -12.3623      -7.41068       14.41335     -149.0591
   Y           0             0             0             0
   Z           9.240119      14.22015      16.95855      56.98457
   MAXIMUM OR PEAK FIELD =  21.69973 V/M

********************NEAR ELECTRIC FIELDS********************
         FIELD POINT: X =  1         Y =  0         Z =  3       
  VECTOR      REAL          IMAGINARY     MAGNITUDE     PHASE
 COMPONENT     V/M           V/M           V/M           DEG
   X          -11.82695     -6.199029      13.35308     -152.339
   Y           0             0             0             0
   Z           11.52174      18.16308      21.50926      57.61102
   MAXIMUM OR PEAK FIELD =  24.63909 V/M

********************NEAR ELECTRIC FIELDS********************
         FIELD POINT: X =  2         Y =  0         Z =  3       
  VECTOR      REAL          IMAGINARY     MAGNITUDE     PHASE
 COMPONENT     V/M           V/M           V/M           DEG
   X          -10.65907     -4.000577      11.38509     -159.4278
   Y           0             0             0             0
   Z           12.63459      20.39898      23.99482      58.22703
   MAXIMUM OR PEAK FIELD =  25.75631 V/M

********************NEAR ELECTRIC FIELDS********************
         FIELD POINT: X = -2         Y =  1         Z =  3       
  VECTOR      REAL          IMAGINARY     MAGNITUDE     PHASE
 COMPONENT     V/M           V/M           V/M           DEG
   X          -10.21426     -4.982675      11.36478     -153.9962
   Y           1.440759      2.0246        2.484913      54.56333
   Z           4.32235       6.073915      7.454874      54.56339
   MAXIMUM OR PEAK FIELD =  13.44722 V/M

********************NEAR ELECTRIC FIELDS********************
         FIELD POINT: X = -1         Y =  1         Z =  3       
  VECTOR      REAL          IMAGINARY     MAGNITUDE     PHASE
 COMPONENT     V/M           V/M           V/M           DEG
   X          -11.36014     -6.288596      12.98458     -151.0326
   Y           2.037529      3.015499      3.639335      55.95367
   Z           6.112783      9.046807      10.91837      55.95373
   MAXIMUM OR PEAK FIELD =  16.87943 V/M

********************NEAR ELECTRIC FIELDS********************
         FIELD POINT: X =  0         Y =  1         Z =  3       
  VECTOR      REAL          IMAGINARY     MAGNITUDE     PHASE
 COMPONENT     V/M           V/M           V/M           DEG
   X          -11.84683     -6.617812      13.56992     -150.8116
   Y           2.771861      4.245936      5.07062       56.86241
   Z           8.315997      12.73846      15.21263      56.86246
   MAXIMUM OR PEAK FIELD =  20.41499 V/M

********************NEAR ELECTRIC FIELDS********************
         FIELD POINT: X =  1         Y =  1         Z =  3       
  VECTOR      REAL          IMAGINARY     MAGNITUDE     PHASE
 COMPONENT     V/M           V/M           V/M           DEG
   X          -11.4047      -5.533705      12.67632     -154.1168
   Y           3.410809      5.358881      6.352262      57.52415
   Z           10.23304      16.07762      19.05794      57.52419
   MAXIMUM OR PEAK FIELD =  23.03504 V/M

********************NEAR ELECTRIC FIELDS********************
         FIELD POINT: X =  2         Y =  1         Z =  3       
  VECTOR      REAL          IMAGINARY     MAGNITUDE     PHASE
 COMPONENT     V/M           V/M           V/M           DEG
   X          -10.39423     -3.563414      10.98808     -161.0769
   Y           3.731355      6.007667      7.072134      58.15563
   Z           11.19474      18.02411      21.2177       58.15566
   MAXIMUM OR PEAK FIELD =  24.06732 V/M

********************NEAR ELECTRIC FIELDS********************
         FIELD POINT: X = -2         Y =  2         Z =  3       
  VECTOR      REAL          IMAGINARY     MAGNITUDE     PHASE
 COMPONENT     V/M           V/M           V/M           DEG
   X          -9.382113     -3.793256      10.11992     -157.9862
   Y           2.48281       3.41149       4.219314      53.95366
   Z           3.724242      5.117277      6.329021      53.95369
   MAXIMUM OR PEAK FIELD =  12.21283 V/M

********************NEAR ELECTRIC FIELDS********************
         FIELD POINT: X = -1         Y =  2         Z =  3       
  VECTOR      REAL          IMAGINARY     MAGNITUDE     PHASE
 COMPONENT     V/M           V/M           V/M           DEG
   X          -10.26426     -4.666503      11.27525     -155.5517
   Y           3.314471      4.812412      5.843375      55.4435
   Z           4.971769      7.218716      8.765178      55.44353
   MAXIMUM OR PEAK FIELD =  14.87245 V/M

********************NEAR ELECTRIC FIELDS********************
         FIELD POINT: X =  0         Y =  2         Z =  3       
  VECTOR      REAL          IMAGINARY     MAGNITUDE     PHASE
 COMPONENT     V/M           V/M           V/M           DEG
   X          -10.64892     -4.805149      11.68285     -155.7135
   Y           4.272054      6.446303      7.733386      56.46701
   Z           6.408197      9.66964       11.6003       56.46704
   MAXIMUM OR PEAK FIELD =  17.50122 V/M

********************NEAR ELECTRIC FIELDS********************
         FIELD POINT: X =  1         Y =  2         Z =  3       
  VECTOR      REAL          IMAGINARY     MAGNITUDE     PHASE
 COMPONENT     V/M           V/M           V/M           DEG
   X          -10.39258     -3.97173       11.12566     -159.0847
   Y           5.092122      7.908615      9.406163      57.22372
   Z           7.638348      11.86319      14.10956      57.22374
   MAXIMUM OR PEAK FIELD =  19.45125 V/M

********************NEAR ELECTRIC FIELDS********************
         FIELD POINT: X =  2         Y =  2         Z =  3       
  VECTOR      REAL          IMAGINARY     MAGNITUDE     PHASE
 COMPONENT     V/M           V/M           V/M           DEG
   X          -9.707682     -2.472226      10.01753     -165.7124
   Y           5.525704      8.809856      10.39937      57.9033
   Z           8.288742      13.21509      15.59942      57.90332
   MAXIMUM OR PEAK FIELD =  20.2732  V/M

********************NEAR ELECTRIC FIELDS********************
         FIELD POINT: X = -2         Y = -2         Z =  4       
  VECTOR      REAL          IMAGINARY     MAGNITUDE     PHASE
 COMPONENT     V/M           V/M           V/M           DEG
   X          -8.009168     -1.92838       8.238047     -166.4625
   Y          -1.907358     -2.488416      3.13532      -127.47
   Z           3.814749      4.976885      6.270702      52.53007
   MAXIMUM OR PEAK FIELD =  10.21581 V/M

********************NEAR ELECTRIC FIELDS********************
         FIELD POINT: X = -1         Y = -2         Z =  4       
  VECTOR      REAL          IMAGINARY     MAGNITUDE     PHASE
 COMPONENT     V/M           V/M           V/M           DEG
   X          -8.598794     -2.317406      8.905596     -164.9169
   Y          -2.346239     -3.253387      4.011155     -125.7979
   Z           4.69254       6.506874      8.022427      54.20212
   MAXIMUM OR PEAK FIELD =  11.91022 V/M

********************NEAR ELECTRIC FIELDS********************
         FIELD POINT: X =  0         Y = -2         Z =  4       
  VECTOR      REAL          IMAGINARY     MAGNITUDE     PHASE
 COMPONENT     V/M           V/M           V/M           DEG
   X          -8.88791      -2.267158      9.172511     -165.69
   Y          -2.806228     -4.072663      4.945856     -124.5684
   Z           5.612556      8.145488      9.891904      55.43166
   MAXIMUM OR PEAK FIELD =  13.49035 V/M

********************NEAR ELECTRIC FIELDS********************
         FIELD POINT: X =  1         Y = -2         Z =  4       
  VECTOR      REAL          IMAGINARY     MAGNITUDE     PHASE
 COMPONENT     V/M           V/M           V/M           DEG
   X          -8.829262     -1.695258      8.990538     -169.1312
   Y          -3.186556     -4.790172      5.75325      -123.633
   Z           6.373246      9.580564      11.50676      56.36709
   MAXIMUM OR PEAK FIELD =  14.65019 V/M

********************NEAR ELECTRIC FIELDS********************
         FIELD POINT: X =  2         Y = -2         Z =  4       
  VECTOR      REAL          IMAGINARY     MAGNITUDE     PHASE
 COMPONENT     V/M           V/M           V/M           DEG
   X          -8.511139     -.725685       8.54202      -175.1266
   Y          -3.39357      -5.257082      6.257254     -122.8432
   Z           6.787292      10.51442      12.5148       57.15685
   MAXIMUM OR PEAK FIELD =  15.1608  V/M

********************NEAR ELECTRIC FIELDS********************
         FIELD POINT: X = -2         Y = -1         Z =  4       
  VECTOR      REAL          IMAGINARY     MAGNITUDE     PHASE
 COMPONENT     V/M           V/M           V/M           DEG
   X          -8.527357     -2.614981      8.919301     -162.9514
   Y          -1.055953     -1.408444      1.760327     -126.86
   Z           4.223874      5.633872      7.041422      53.14007
   MAXIMUM OR PEAK FIELD =  10.9603  V/M

********************NEAR ELECTRIC FIELDS********************
         FIELD POINT: X = -1         Y = -1         Z =  4       
  VECTOR      REAL          IMAGINARY     MAGNITUDE     PHASE
 COMPONENT     V/M           V/M           V/M           DEG
   X          -9.21023      -3.158743      9.736837     -161.0701
   Y          -1.337144     -1.891371      2.316298     -125.2592
   Z           5.348698      7.565677      9.265422      54.74088
   MAXIMUM OR PEAK FIELD =  12.97857 V/M

********************NEAR ELECTRIC FIELDS********************
         FIELD POINT: X =  0         Y = -1         Z =  4       
  VECTOR      REAL          IMAGINARY     MAGNITUDE     PHASE
 COMPONENT     V/M           V/M           V/M           DEG
   X          -9.527791     -3.165992      10.04003     -161.6189
   Y          -1.64199      -2.424317      2.928044     -124.1098
   Z           6.568166      9.697599      11.71257      55.89029
   MAXIMUM OR PEAK FIELD =  14.90053 V/M

********************NEAR ELECTRIC FIELDS********************
         FIELD POINT: X =  1         Y = -1         Z =  4       
  VECTOR      REAL          IMAGINARY     MAGNITUDE     PHASE
 COMPONENT     V/M           V/M           V/M           DEG
   X          -9.407329     -2.512752      9.737133     -165.0451
   Y          -1.897867     -2.895269      3.461861     -123.2451
   Z           7.591751      11.58153      13.84798      56.75497
   MAXIMUM OR PEAK FIELD =  16.31991 V/M

********************NEAR ELECTRIC FIELDS********************
         FIELD POINT: X =  2         Y = -1         Z =  4       
  VECTOR      REAL          IMAGINARY     MAGNITUDE     PHASE
 COMPONENT     V/M           V/M           V/M           DEG
   X          -8.97188      -1.373361      9.076384     -171.2971
   Y          -2.036882     -3.197075      3.790802     -122.5015
   Z           8.147846      12.78883      15.16382      57.49852
   MAXIMUM OR PEAK FIELD =  16.94096 V/M

********************NEAR ELECTRIC FIELDS********************
         FIELD POINT: X = -2         Y =  0         Z =  4       
  VECTOR      REAL          IMAGINARY     MAGNITUDE     PHASE
 COMPONENT     V/M           V/M           V/M           DEG
   X          -8.720623     -2.876816      9.182883     -161.743
   Y           0             0             0             0
   Z           4.384433      5.891496      7.343908      53.34349
   MAXIMUM OR PEAK FIELD =  11.24131 V/M

********************NEAR ELECTRIC FIELDS********************
         FIELD POINT: X = -1         Y =  0         Z =  4       
  VECTOR      REAL          IMAGINARY     MAGNITUDE     PHASE
 COMPONENT     V/M           V/M           V/M           DEG
   X          -9.443193     -3.48638       10.06622     -159.7361
   Y           0             0             0             0
   Z           5.615635      7.995717      9.770714      54.91847
   MAXIMUM OR PEAK FIELD =  13.3924  V/M

********************NEAR ELECTRIC FIELDS********************
         FIELD POINT: X =  0         Y =  0         Z =  4       
  VECTOR      REAL          IMAGINARY     MAGNITUDE     PHASE
 COMPONENT     V/M           V/M           V/M           DEG
   X          -9.773422     -3.518902      10.38761     -160.1987
   Y           0             0             0             0
   Z           6.967973      10.34551      12.47326      56.0387
   MAXIMUM OR PEAK FIELD =  15.45745 V/M

********************NEAR ELECTRIC FIELDS********************
         FIELD POINT: X =  1         Y =  0         Z =  4       
  VECTOR      REAL          IMAGINARY     MAGNITUDE     PHASE
 COMPONENT     V/M           V/M           V/M           DEG
   X          -9.626244     -2.830427      10.03374     -163.615
   Y           0             0             0             0
   Z           8.10876       12.42839      14.8397       56.87802
   MAXIMUM OR PEAK FIELD =  16.98492 V/M

********************NEAR ELECTRIC FIELDS********************
         FIELD POINT: X =  2         Y =  0         Z =  4       
  VECTOR      REAL          IMAGINARY     MAGNITUDE     PHASE
 COMPONENT     V/M           V/M           V/M           DEG
   X          -9.140896     -1.618969      9.283159     -169.9563
   Y           0             0             0             0
   Z           8.726259      13.75345      16.28819      57.60578
   MAXIMUM OR PEAK FIELD =  17.64955 V/M

********************NEAR ELECTRIC FIELDS********************
         FIELD POINT: X = -2         Y =  1         Z =  4       
  VECTOR      REAL          IMAGINARY     MAGNITUDE     PHASE
 COMPONENT     V/M           V/M           V/M           DEG
   X          -8.527357     -2.614981      8.919301     -162.9514
   Y           1.055953      1.408444      1.760327      53.13999
   Z           4.223874      5.633872      7.041422      53.14007
   MAXIMUM OR PEAK FIELD =  10.9603  V/M

********************NEAR ELECTRIC FIELDS********************
         FIELD POINT: X = -1         Y =  1         Z =  4       
  VECTOR      REAL          IMAGINARY     MAGNITUDE     PHASE
 COMPONENT     V/M           V/M           V/M           DEG
   X          -9.21023      -3.158743      9.736837     -161.0701
   Y           1.337144      1.891371      2.316298      54.7408
   Z           5.348698      7.565677      9.265422      54.74088
   MAXIMUM OR PEAK FIELD =  12.97857 V/M

********************NEAR ELECTRIC FIELDS********************
         FIELD POINT: X =  0         Y =  1         Z =  4       
  VECTOR      REAL          IMAGINARY     MAGNITUDE     PHASE
 COMPONENT     V/M           V/M           V/M           DEG
   X          -9.527791     -3.165992      10.04003     -161.6189
   Y           1.64199       2.424317      2.928044      55.89021
   Z           6.568166      9.697599      11.71257      55.89029
   MAXIMUM OR PEAK FIELD =  14.90053 V/M

********************NEAR ELECTRIC FIELDS********************
         FIELD POINT: X =  1         Y =  1         Z =  4       
  VECTOR      REAL          IMAGINARY     MAGNITUDE     PHASE
 COMPONENT     V/M           V/M           V/M           DEG
   X          -9.407329     -2.512752      9.737133     -165.0451
   Y           1.897867      2.895269      3.461861      56.75491
   Z           7.591751      11.58153      13.84798      56.75497
   MAXIMUM OR PEAK FIELD =  16.31991 V/M

********************NEAR ELECTRIC FIELDS********************
         FIELD POINT: X =  2         Y =  1         Z =  4       
  VECTOR      REAL          IMAGINARY     MAGNITUDE     PHASE
 COMPONENT     V/M           V/M           V/M           DEG
   X          -8.97188      -1.373361      9.076384     -171.2971
   Y           2.036882      3.197075      3.790802      57.49847
   Z           8.147846      12.78883      15.16382      57.49852
   MAXIMUM OR PEAK FIELD =  16.94096 V/M

********************NEAR ELECTRIC FIELDS********************
         FIELD POINT: X = -2         Y =  2         Z =  4       
  VECTOR      REAL          IMAGINARY     MAGNITUDE     PHASE
 COMPONENT     V/M           V/M           V/M           DEG
   X          -8.009168     -1.92838       8.238047     -166.4625
   Y           1.907358      2.488416      3.13532       52.53002
   Z           3.814749      4.976885      6.270702      52.53007
   MAXIMUM OR PEAK FIELD =  10.21581 V/M

********************NEAR ELECTRIC FIELDS********************
         FIELD POINT: X = -1         Y =  2         Z =  4       
  VECTOR      REAL          IMAGINARY     MAGNITUDE     PHASE
 COMPONENT     V/M           V/M           V/M           DEG
   X          -8.598794     -2.317406      8.905596     -164.9169
   Y           2.346239      3.253387      4.011155      54.20206
   Z           4.69254       6.506874      8.022427      54.20212
   MAXIMUM OR PEAK FIELD =  11.91022 V/M

********************NEAR ELECTRIC FIELDS********************
         FIELD POINT: X =  0         Y =  2         Z =  4       
  VECTOR      REAL          IMAGINARY     MAGNITUDE     PHASE
 COMPONENT     V/M           V/M           V/M           DEG
   X          -8.88791      -2.267158      9.172511     -165.69
   Y           2.806228      4.072663      4.945856      55.4316
   Z           5.612556      8.145488      9.891904      55.43166
   MAXIMUM OR PEAK FIELD =  13.49035 V/M

********************NEAR ELECTRIC FIELDS********************
         FIELD POINT: X =  1         Y =  2         Z =  4       
  VECTOR      REAL          IMAGINARY     MAGNITUDE     PHASE
 COMPONENT     V/M           V/M           V/M           DEG
   X          -8.829262     -1.695258      8.990538     -169.1312
   Y           3.186556      4.790172      5.75325       56.36704
   Z           6.373246      9.580564      11.50676      56.36709
   MAXIMUM OR PEAK FIELD =  14.65019 V/M

********************NEAR ELECTRIC FIELDS********************
         FIELD POINT: X =  2         Y =  2         Z =  4       
  VECTOR      REAL          IMAGINARY     MAGNITUDE     PHASE
 COMPONENT     V/M           V/M           V/M           DEG
   X          -8.511139     -.725685       8.54202      -175.1266
   Y           3.39357       5.257082      6.257254      57.1568
   Z           6.787292      10.51442      12.5148       57.15685
   MAXIMUM OR PEAK FIELD =  15.1608  V/M

********************    NEAR FIELDS     ********************

X-COORDINATE (M): INITIAL,INCREMENT,NUMBER : -2 ,  1 ,  5
Y-COORDINATE (M): INITIAL,INCREMENT,NUMBER : -2 ,  1 ,  5
Z-COORDINATE (M): INITIAL,INCREMENT,NUMBER :  0 ,  1 ,  5

NEW POWER LEVEL (WATTS) =  100

********************NEAR MAGNETIC FIELDS********************
         FIELD POINT: X = -2         Y = -2         Z =  0       
  VECTOR      REAL          IMAGINARY     MAGNITUDE     PHASE
 COMPONENT     AMPS/M        AMPS/M        AMPS/M        DEG
   X           0             0             0             0
   Y           0             0             0             0
   Z          -4.386374E-03  5.601296E-03  7.114407E-03  128.0645
   MAXIMUM OR PEAK FIELD =  7.114407E-03  AMPS/M

********************NEAR MAGNETIC FIELDS********************
         FIELD POINT: X = -1         Y = -2         Z =  0       
  VECTOR      REAL          IMAGINARY     MAGNITUDE     PHASE
 COMPONENT     AMPS/M        AMPS/M        AMPS/M        DEG
   X           0             0             0             0
   Y           0             0             0             0
   Z          -7.600231E-03  7.743526E-03  1.085015E-02  134.4649
   MAXIMUM OR PEAK FIELD =  1.085015E-02  AMPS/M

********************NEAR MAGNETIC FIELDS********************
         FIELD POINT: X =  0         Y = -2         Z =  0       
  VECTOR      REAL          IMAGINARY     MAGNITUDE     PHASE
 COMPONENT     AMPS/M        AMPS/M        AMPS/M        DEG
   X           0             0             0             0
   Y           0             0             0             0
   Z          -1.379410E-02  1.173672E-02  1.811154E-02  139.6072
   MAXIMUM OR PEAK FIELD =  1.811154E-02  AMPS/M

********************NEAR MAGNETIC FIELDS********************
         FIELD POINT: X =  1         Y = -2         Z =  0       
  VECTOR      REAL          IMAGINARY     MAGNITUDE     PHASE
 COMPONENT     AMPS/M        AMPS/M        AMPS/M        DEG
   X           0             0             0             0
   Y           0             0             0             0
   Z          -2.462643E-02  1.860173E-02  3.086237E-02  142.9342
   MAXIMUM OR PEAK FIELD =  3.086237E-02  AMPS/M

********************NEAR MAGNETIC FIELDS********************
         FIELD POINT: X =  2         Y = -2         Z =  0       
  VECTOR      REAL          IMAGINARY     MAGNITUDE     PHASE
 COMPONENT     AMPS/M        AMPS/M        AMPS/M        DEG
   X           0             0             0             0
   Y           0             0             0             0
   Z          -3.802463E-02  2.695325E-02  4.660848E-02  144.6696
   MAXIMUM OR PEAK FIELD =  4.660848E-02  AMPS/M

********************NEAR MAGNETIC FIELDS********************
         FIELD POINT: X = -2         Y = -1         Z =  0       
  VECTOR      REAL          IMAGINARY     MAGNITUDE     PHASE
 COMPONENT     AMPS/M        AMPS/M        AMPS/M        DEG
   X           0             0             0             0
   Y           0             0             0             0
   Z          -2.607546E-03  3.069946E-03  4.027886E-03  130.3439
   MAXIMUM OR PEAK FIELD =  4.027886E-03  AMPS/M

********************NEAR MAGNETIC FIELDS********************
         FIELD POINT: X = -1         Y = -1         Z =  0       
  VECTOR      REAL          IMAGINARY     MAGNITUDE     PHASE
 COMPONENT     AMPS/M        AMPS/M        AMPS/M        DEG
   X           0             0             0             0
   Y           0             0             0             0
   Z          -5.073886E-03  4.683627E-03  6.905120E-03  137.2904
   MAXIMUM OR PEAK FIELD =  6.905120E-03  AMPS/M

********************NEAR MAGNETIC FIELDS********************
         FIELD POINT: X =  0         Y = -1         Z =  0       
  VECTOR      REAL          IMAGINARY     MAGNITUDE     PHASE
 COMPONENT     AMPS/M        AMPS/M        AMPS/M        DEG
   X           0             0             0             0
   Y           0             0             0             0
   Z          -1.243000E-02  9.376800E-03  1.557014E-02  142.9702
   MAXIMUM OR PEAK FIELD =  1.557014E-02  AMPS/M

********************NEAR MAGNETIC FIELDS********************
         FIELD POINT: X =  1         Y = -1         Z =  0       
  VECTOR      REAL          IMAGINARY     MAGNITUDE     PHASE
 COMPONENT     AMPS/M        AMPS/M        AMPS/M        DEG
   X           0             0             0             0
   Y           0             0             0             0
   Z          -3.918375E-02  2.633394E-02  4.721062E-02  146.0964
   MAXIMUM OR PEAK FIELD =  4.721062E-02  AMPS/M

********************NEAR MAGNETIC FIELDS********************
         FIELD POINT: X =  2         Y = -1         Z =  0       
  VECTOR      REAL          IMAGINARY     MAGNITUDE     PHASE
 COMPONENT     AMPS/M        AMPS/M        AMPS/M        DEG
   X           0             0             0             0
   Y           0             0             0             0
   Z          -7.262565E-02  4.736238E-02  8.670456E-02  146.8899
   MAXIMUM OR PEAK FIELD =  8.670456E-02  AMPS/M

********************NEAR MAGNETIC FIELDS********************
         FIELD POINT: X = -2         Y =  0         Z =  0       
  VECTOR      REAL          IMAGINARY     MAGNITUDE     PHASE
 COMPONENT     AMPS/M        AMPS/M        AMPS/M        DEG
   X           0             0             0             0
   Y           0             0             0             0
   Z           0             0             0             0
   MAXIMUM OR PEAK FIELD =  0  AMPS/M

********************NEAR MAGNETIC FIELDS********************
         FIELD POINT: X = -1         Y =  0         Z =  0       
  VECTOR      REAL          IMAGINARY     MAGNITUDE     PHASE
 COMPONENT     AMPS/M        AMPS/M        AMPS/M        DEG
   X           0             0             0             0
   Y           0             0             0             0
   Z           0             0             0             0
   MAXIMUM OR PEAK FIELD =  0  AMPS/M

********************NEAR MAGNETIC FIELDS********************
         FIELD POINT: X =  0         Y =  0         Z =  0       
  VECTOR      REAL          IMAGINARY     MAGNITUDE     PHASE
 COMPONENT     AMPS/M        AMPS/M        AMPS/M        DEG
   X           0             0             0             0
   Y           0             0             0             0
   Z           0             0             0             0
   MAXIMUM OR PEAK FIELD =  0  AMPS/M

********************NEAR MAGNETIC FIELDS********************
         FIELD POINT: X =  1         Y =  0         Z =  0       
  VECTOR      REAL          IMAGINARY     MAGNITUDE     PHASE
 COMPONENT     AMPS/M        AMPS/M        AMPS/M        DEG
   X           0             0             0             0
   Y           0             0             0             0
   Z           0             0             0             0
   MAXIMUM OR PEAK FIELD =  0  AMPS/M

********************NEAR MAGNETIC FIELDS********************
         FIELD POINT: X =  2         Y =  0         Z =  0       
  VECTOR      REAL          IMAGINARY     MAGNITUDE     PHASE
 COMPONENT     AMPS/M        AMPS/M        AMPS/M        DEG
   X           0             0             0             0
   Y           0             0             0             0
   Z           0             0             0             0
   MAXIMUM OR PEAK FIELD =  0  AMPS/M

********************NEAR MAGNETIC FIELDS********************
         FIELD POINT: X = -2         Y =  1         Z =  0       
  VECTOR      REAL          IMAGINARY     MAGNITUDE     PHASE
 COMPONENT     AMPS/M        AMPS/M        AMPS/M        DEG
   X           0             0             0             0
   Y           0             0             0             0
   Z           2.607546E-03 -3.069946E-03  4.027886E-03 -49.65614
   MAXIMUM OR PEAK FIELD =  4.027886E-03  AMPS/M

********************NEAR MAGNETIC FIELDS********************
         FIELD POINT: X = -1         Y =  1         Z =  0       
  VECTOR      REAL          IMAGINARY     MAGNITUDE     PHASE
 COMPONENT     AMPS/M        AMPS/M        AMPS/M        DEG
   X           0             0             0             0
   Y           0             0             0             0
   Z           5.073886E-03 -4.683627E-03  6.905120E-03 -42.70964
   MAXIMUM OR PEAK FIELD =  6.905120E-03  AMPS/M

********************NEAR MAGNETIC FIELDS********************
         FIELD POINT: X =  0         Y =  1         Z =  0       
  VECTOR      REAL          IMAGINARY     MAGNITUDE     PHASE
 COMPONENT     AMPS/M        AMPS/M        AMPS/M        DEG
   X           0             0             0             0
   Y           0             0             0             0
   Z           1.243000E-02 -9.376800E-03  1.557014E-02 -37.02975
   MAXIMUM OR PEAK FIELD =  1.557014E-02  AMPS/M

********************NEAR MAGNETIC FIELDS********************
         FIELD POINT: X =  1         Y =  1         Z =  0       
  VECTOR      REAL          IMAGINARY     MAGNITUDE     PHASE
 COMPONENT     AMPS/M        AMPS/M        AMPS/M        DEG
   X           0             0             0             0
   Y           0             0             0             0
   Z           3.918375E-02 -2.633394E-02  4.721062E-02 -33.90358
   MAXIMUM OR PEAK FIELD =  4.721062E-02  AMPS/M

********************NEAR MAGNETIC FIELDS********************
         FIELD POINT: X =  2         Y =  1         Z =  0       
  VECTOR      REAL          IMAGINARY     MAGNITUDE     PHASE
 COMPONENT     AMPS/M        AMPS/M        AMPS/M        DEG
   X           0             0             0             0
   Y           0             0             0             0
   Z           7.262565E-02 -4.736238E-02  8.670456E-02 -33.11014
   MAXIMUM OR PEAK FIELD =  8.670456E-02  AMPS/M

********************NEAR MAGNETIC FIELDS********************
         FIELD POINT: X = -2         Y =  2         Z =  0       
  VECTOR      REAL          IMAGINARY     MAGNITUDE     PHASE
 COMPONENT     AMPS/M        AMPS/M        AMPS/M        DEG
   X           0             0             0             0
   Y           0             0             0             0
   Z           4.386374E-03 -5.601296E-03  7.114407E-03 -51.93551
   MAXIMUM OR PEAK FIELD =  7.114407E-03  AMPS/M

********************NEAR MAGNETIC FIELDS********************
         FIELD POINT: X = -1         Y =  2         Z =  0       
  VECTOR      REAL          IMAGINARY     MAGNITUDE     PHASE
 COMPONENT     AMPS/M        AMPS/M        AMPS/M        DEG
   X           0             0             0             0
   Y           0             0             0             0
   Z           7.600231E-03 -7.743526E-03  1.085015E-02 -45.53507
   MAXIMUM OR PEAK FIELD =  1.085015E-02  AMPS/M

********************NEAR MAGNETIC FIELDS********************
         FIELD POINT: X =  0         Y =  2         Z =  0       
  VECTOR      REAL          IMAGINARY     MAGNITUDE     PHASE
 COMPONENT     AMPS/M        AMPS/M        AMPS/M        DEG
   X           0             0             0             0
   Y           0             0             0             0
   Z           1.379410E-02 -1.173672E-02  1.811154E-02 -40.39283
   MAXIMUM OR PEAK FIELD =  1.811154E-02  AMPS/M

********************NEAR MAGNETIC FIELDS********************
         FIELD POINT: X =  1         Y =  2         Z =  0       
  VECTOR      REAL          IMAGINARY     MAGNITUDE     PHASE
 COMPONENT     AMPS/M        AMPS/M        AMPS/M        DEG
   X           0             0             0             0
   Y           0             0             0             0
   Z           2.462643E-02 -1.860173E-02  3.086237E-02 -37.06581
   MAXIMUM OR PEAK FIELD =  3.086237E-02  AMPS/M

********************NEAR MAGNETIC FIELDS********************
         FIELD POINT: X =  2         Y =  2         Z =  0       
  VECTOR      REAL          IMAGINARY     MAGNITUDE     PHASE
 COMPONENT     AMPS/M        AMPS/M        AMPS/M        DEG
   X           0             0             0             0
   Y           0             0             0             0
   Z           3.802463E-02 -2.695325E-02  4.660848E-02 -35.33041
   MAXIMUM OR PEAK FIELD =  4.660848E-02  AMPS/M

********************NEAR MAGNETIC FIELDS********************
         FIELD POINT: X = -2         Y = -2         Z =  1       
  VECTOR      REAL          IMAGINARY     MAGNITUDE     PHASE
 COMPONENT     AMPS/M        AMPS/M        AMPS/M        DEG
   X           0             0             0             0
   Y          -2.083613E-03  2.728921E-03  3.433431E-03  127.3628
   Z          -4.167245E-03  5.457854E-03  6.866884E-03  127.3629
   MAXIMUM OR PEAK FIELD =  7.677405E-03  AMPS/M

********************NEAR MAGNETIC FIELDS********************
         FIELD POINT: X = -1         Y = -2         Z =  1       
  VECTOR      REAL          IMAGINARY     MAGNITUDE     PHASE
 COMPONENT     AMPS/M        AMPS/M        AMPS/M        DEG
   X           0             0             0             0
   Y          -3.522465E-03  3.694209E-03  5.104404E-03  133.6367
   Z          -7.045006E-03  7.388466E-03  1.020889E-02  133.6368
   MAXIMUM OR PEAK FIELD =  1.141387E-02  AMPS/M

********************NEAR MAGNETIC FIELDS********************
         FIELD POINT: X =  0         Y = -2         Z =  1       
  VECTOR      REAL          IMAGINARY     MAGNITUDE     PHASE
 COMPONENT     AMPS/M        AMPS/M        AMPS/M        DEG
   X           0             0             0             0
   Y          -6.105811E-03  5.366870E-03  8.129220E-03  138.6853
   Z          -1.221195E-02  1.073395E-02  1.625883E-02  138.6855
   MAXIMUM OR PEAK FIELD =  1.817784E-02  AMPS/M

********************NEAR MAGNETIC FIELDS********************
         FIELD POINT: X =  1         Y = -2         Z =  1       
  VECTOR      REAL          IMAGINARY     MAGNITUDE     PHASE
 COMPONENT     AMPS/M        AMPS/M        AMPS/M        DEG
   X           0             0             0             0
   Y          -1.029647E-02  8.027226E-03  1.305579E-02  142.0597
   Z          -2.059404E-02  1.605515E-02  2.611287E-02  142.06
   MAXIMUM OR PEAK FIELD =  2.919479E-02  AMPS/M

********************NEAR MAGNETIC FIELDS********************
         FIELD POINT: X =  2         Y = -2         Z =  1       
  VECTOR      REAL          IMAGINARY     MAGNITUDE     PHASE
 COMPONENT     AMPS/M        AMPS/M        AMPS/M        DEG
   X           0             0             0             0
   Y          -1.545012E-02  1.124019E-02  1.910623E-02  143.9636
   Z          -3.090230E-02  2.248167E-02  3.821489E-02  143.9638
   MAXIMUM OR PEAK FIELD =  4.272500E-02  AMPS/M

********************NEAR MAGNETIC FIELDS********************
         FIELD POINT: X = -2         Y = -1         Z =  1       
  VECTOR      REAL          IMAGINARY     MAGNITUDE     PHASE
 COMPONENT     AMPS/M        AMPS/M        AMPS/M        DEG
   X           0             0             0             0
   Y          -2.452053E-03  2.969194E-03  3.850802E-03  129.5509
   Z          -2.452053E-03  2.969194E-03  3.850802E-03  129.5509
   MAXIMUM OR PEAK FIELD =  5.445857E-03  AMPS/M

********************NEAR MAGNETIC FIELDS********************
         FIELD POINT: X = -1         Y = -1         Z =  1       
  VECTOR      REAL          IMAGINARY     MAGNITUDE     PHASE
 COMPONENT     AMPS/M        AMPS/M        AMPS/M        DEG
   X           0             0             0             0
   Y          -4.546144E-03  4.347633E-03  6.290416E-03  136.2786
   Z          -4.546144E-03  4.347633E-03  6.290416E-03  136.2786
   MAXIMUM OR PEAK FIELD =  8.895992E-03  AMPS/M

********************NEAR MAGNETIC FIELDS********************
         FIELD POINT: X =  0         Y = -1         Z =  1       
  VECTOR      REAL          IMAGINARY     MAGNITUDE     PHASE
 COMPONENT     AMPS/M        AMPS/M        AMPS/M        DEG
   X           0             0             0             0
   Y          -9.620601E-03  7.594837E-03  1.225714E-02  141.7112
[...]
         FIELD POINT: X =  2         Y = -1         Z =  3       
  VECTOR      REAL          IMAGINARY     MAGNITUDE     PHASE
 COMPONENT     AMPS/M        AMPS/M        AMPS/M        DEG
   X           0             0             0             0
   Y          -2.454587E-02  2.007730E-02  3.171116E-02  140.7185
   Z          -8.181608E-03  6.692215E-03  1.056998E-02  140.7183
   MAXIMUM OR PEAK FIELD =  3.342636E-02  AMPS/M

********************NEAR MAGNETIC FIELDS********************
         FIELD POINT: X = -2         Y =  0         Z =  3       
  VECTOR      REAL          IMAGINARY     MAGNITUDE     PHASE
 COMPONENT     AMPS/M        AMPS/M        AMPS/M        DEG
   X           0             0             0             0
   Y          -5.203145E-03  7.494611E-03  9.123700E-03  124.7704
   Z           0             0             0             0
   MAXIMUM OR PEAK FIELD =  9.123700E-03  AMPS/M

********************NEAR MAGNETIC FIELDS********************
         FIELD POINT: X = -1         Y =  0         Z =  3       
  VECTOR      REAL          IMAGINARY     MAGNITUDE     PHASE
 COMPONENT     AMPS/M        AMPS/M        AMPS/M        DEG
   X           0             0             0             0
   Y          -8.240974E-03  9.587499E-03  1.264254E-02  130.6808
   Z           0             0             0             0
   MAXIMUM OR PEAK FIELD =  1.264254E-02  AMPS/M

********************NEAR MAGNETIC FIELDS********************
         FIELD POINT: X =  0         Y =  0         Z =  3       
  VECTOR      REAL          IMAGINARY     MAGNITUDE     PHASE
 COMPONENT     AMPS/M        AMPS/M        AMPS/M        DEG
   X           0             0             0             0
   Y          -1.286293E-02  1.263972E-02  1.803378E-02  135.5015
   Z           0             0             0             0
   MAXIMUM OR PEAK FIELD =  1.803378E-02  AMPS/M

********************NEAR MAGNETIC FIELDS********************
         FIELD POINT: X =  1         Y =  0         Z =  3       
  VECTOR      REAL          IMAGINARY     MAGNITUDE     PHASE
 COMPONENT     AMPS/M        AMPS/M        AMPS/M        DEG
   X           0             0             0             0
   Y          -1.930772E-02  1.677985E-02  2.558029E-02  139.0069
   Z           0             0             0             0
   MAXIMUM OR PEAK FIELD =  2.558029E-02  AMPS/M

********************NEAR MAGNETIC FIELDS********************
         FIELD POINT: X =  2         Y =  0         Z =  3       
  VECTOR      REAL          IMAGINARY     MAGNITUDE     PHASE
 COMPONENT     AMPS/M        AMPS/M        AMPS/M        DEG
   X           0             0             0             0
   Y          -2.702963E-02  2.162816E-02  3.461760E-02  141.3344
   Z           0             0             0             0
   MAXIMUM OR PEAK FIELD =  3.461760E-02  AMPS/M

********************NEAR MAGNETIC FIELDS********************
         FIELD POINT: X = -2         Y =  1         Z =  3       
  VECTOR      REAL          IMAGINARY     MAGNITUDE     PHASE
 COMPONENT     AMPS/M        AMPS/M        AMPS/M        DEG
   X           0             0             0             0
   Y          -4.990433E-03  7.352582E-03  8.886219E-03  124.166
   Z           1.663466E-03 -2.450853E-03  2.962060E-03 -55.83412
   MAXIMUM OR PEAK FIELD =  9.366893E-03  AMPS/M

********************NEAR MAGNETIC FIELDS********************
         FIELD POINT: X = -1         Y =  1         Z =  3       
  VECTOR      REAL          IMAGINARY     MAGNITUDE     PHASE
 COMPONENT     AMPS/M        AMPS/M        AMPS/M        DEG
   X           0             0             0             0
   Y          -7.817427E-03  9.313470E-03  1.215948E-02  130.009
   Z           2.605775E-03 -3.104469E-03  4.053121E-03 -49.99116
   MAXIMUM OR PEAK FIELD =  1.281720E-02  AMPS/M

********************NEAR MAGNETIC FIELDS********************
         FIELD POINT: X =  0         Y =  1         Z =  3       
  VECTOR      REAL          IMAGINARY     MAGNITUDE     PHASE
 COMPONENT     AMPS/M        AMPS/M        AMPS/M        DEG
   X           0             0             0             0
   Y          -1.200935E-02  1.209667E-02  1.704564E-02  134.7925
   Z           4.003025E-03 -4.032166E-03  5.681775E-03 -45.20779
   MAXIMUM OR PEAK FIELD =  1.796765E-02  AMPS/M

********************NEAR MAGNETIC FIELDS********************
         FIELD POINT: X =  1         Y =  1         Z =  3       
  VECTOR      REAL          IMAGINARY     MAGNITUDE     PHASE
 COMPONENT     AMPS/M        AMPS/M        AMPS/M        DEG
   X           0             0             0             0
   Y          -1.773129E-02  1.578659E-02  2.374058E-02  138.3206
   Z           5.910228E-03 -5.262069E-03  7.913290E-03 -41.67972
   MAXIMUM OR PEAK FIELD =  2.502470E-02  AMPS/M

********************NEAR MAGNETIC FIELDS********************
         FIELD POINT: X =  2         Y =  1         Z =  3       
  VECTOR      REAL          IMAGINARY     MAGNITUDE     PHASE
 COMPONENT     AMPS/M        AMPS/M        AMPS/M        DEG
   X           0             0             0             0
   Y          -2.454587E-02  2.007730E-02  3.171116E-02  140.7185
   Z           8.181608E-03 -6.692215E-03  1.056998E-02 -39.28174
   MAXIMUM OR PEAK FIELD =  3.342636E-02  AMPS/M

********************NEAR MAGNETIC FIELDS********************
         FIELD POINT: X = -2         Y =  2         Z =  3       
  VECTOR      REAL          IMAGINARY     MAGNITUDE     PHASE
 COMPONENT     AMPS/M        AMPS/M        AMPS/M        DEG
   X           0             0             0             0
   Y          -4.434719E-03  6.978346E-03  8.268256E-03  122.4358
   Z           2.956469E-03 -4.652224E-03  5.512159E-03 -57.56421
   MAXIMUM OR PEAK FIELD =  9.937200E-03  AMPS/M

********************NEAR MAGNETIC FIELDS********************
         FIELD POINT: X = -1         Y =  2         Z =  3       
  VECTOR      REAL          IMAGINARY     MAGNITUDE     PHASE
 COMPONENT     AMPS/M        AMPS/M        AMPS/M        DEG
   X           0             0             0             0
   Y          -6.771964E-03  8.633184E-03  1.097230E-02  128.111
   Z           4.514617E-03 -5.755439E-03  7.314837E-03 -51.88905
   MAXIMUM OR PEAK FIELD =  1.318705E-02  AMPS/M

********************NEAR MAGNETIC FIELDS********************
         FIELD POINT: X =  0         Y =  2         Z =  3       
  VECTOR      REAL          IMAGINARY     MAGNITUDE     PHASE
 COMPONENT     AMPS/M        AMPS/M        AMPS/M        DEG
   X           0             0             0             0
   Y          -1.004085E-02  1.084055E-02  1.477621E-02  132.8068
   Z           6.693842E-03 -7.226994E-03  9.850734E-03 -47.19329
   MAXIMUM OR PEAK FIELD =  1.775875E-02  AMPS/M

********************NEAR MAGNETIC FIELDS********************
         FIELD POINT: X =  1         Y =  2         Z =  3       
  VECTOR      REAL          IMAGINARY     MAGNITUDE     PHASE
 COMPONENT     AMPS/M        AMPS/M        AMPS/M        DEG
   X           0             0             0             0
   Y          -1.429761E-02  1.362123E-02  1.974739E-02  136.3878
   Z           9.531618E-03 -9.080743E-03  1.316479E-02 -43.61231
   MAXIMUM OR PEAK FIELD =  2.373333E-02  AMPS/M

********************NEAR MAGNETIC FIELDS********************
         FIELD POINT: X =  2         Y =  2         Z =  3       
  VECTOR      REAL          IMAGINARY     MAGNITUDE     PHASE
 COMPONENT     AMPS/M        AMPS/M        AMPS/M        DEG
   X           0             0             0             0
   Y          -1.928596E-02  1.679395E-02  2.557313E-02  138.9511
   Z           1.285711E-02 -1.119584E-02  1.704852E-02 -41.04904
   MAXIMUM OR PEAK FIELD =  3.073495E-02  AMPS/M

********************NEAR MAGNETIC FIELDS********************
         FIELD POINT: X = -2         Y = -2         Z =  4       
  VECTOR      REAL          IMAGINARY     MAGNITUDE     PHASE
 COMPONENT     AMPS/M        AMPS/M        AMPS/M        DEG
   X           0             0             0             0
   Y          -4.620587E-03  8.414305E-03  9.599498E-03  118.7727
   Z          -2.310280E-03  4.207144E-03  4.799735E-03  118.7726
   MAXIMUM OR PEAK FIELD =  1.073256E-02  AMPS/M

********************NEAR MAGNETIC FIELDS********************
         FIELD POINT: X = -1         Y = -2         Z =  4       
  VECTOR      REAL          IMAGINARY     MAGNITUDE     PHASE
 COMPONENT     AMPS/M        AMPS/M        AMPS/M        DEG
   X           0             0             0             0
   Y          -6.827594E-03  1.005462E-02  1.215366E-02  124.1785
   Z          -3.413770E-03  5.027294E-03  6.076802E-03  124.1784
   MAXIMUM OR PEAK FIELD =  1.358819E-02  AMPS/M

********************NEAR MAGNETIC FIELDS********************
         FIELD POINT: X =  0         Y = -2         Z =  4       
  VECTOR      REAL          IMAGINARY     MAGNITUDE     PHASE
 COMPONENT     AMPS/M        AMPS/M        AMPS/M        DEG
   X           0             0             0             0
   Y          -9.678817E-03  1.206287E-02  1.546585E-02  128.7423
   Z          -4.839357E-03  6.031403E-03  7.732865E-03  128.7422
   MAXIMUM OR PEAK FIELD =  1.729132E-02  AMPS/M

********************NEAR MAGNETIC FIELDS********************
         FIELD POINT: X =  1         Y = -2         Z =  4       
  VECTOR      REAL          IMAGINARY     MAGNITUDE     PHASE
 COMPONENT     AMPS/M        AMPS/M        AMPS/M        DEG
   X           0             0             0             0
   Y          -1.316687E-02  1.442301E-02  1.952920E-02  132.3932
   Z          -6.583346E-03  7.211447E-03  9.764498E-03  132.393
   MAXIMUM OR PEAK FIELD =  2.183426E-02  AMPS/M

********************NEAR MAGNETIC FIELDS********************
         FIELD POINT: X =  2         Y = -2         Z =  4       
  VECTOR      REAL          IMAGINARY     MAGNITUDE     PHASE
 COMPONENT     AMPS/M        AMPS/M        AMPS/M        DEG
   X           0             0             0             0
   Y          -1.714059E-02  1.702690E-02  2.416020E-02  135.1906
   Z          -8.570159E-03  8.513367E-03  1.207994E-02  135.1905
   MAXIMUM OR PEAK FIELD =  2.701186E-02  AMPS/M

********************NEAR MAGNETIC FIELDS********************
         FIELD POINT: X = -2         Y = -1         Z =  4       
  VECTOR      REAL          IMAGINARY     MAGNITUDE     PHASE
 COMPONENT     AMPS/M        AMPS/M        AMPS/M        DEG
   X           0             0             0             0
   Y          -5.115960E-03  8.759107E-03  1.014372E-02  120.2881
   Z          -1.278979E-03  2.189770E-03  2.535918E-03  120.2879
   MAXIMUM OR PEAK FIELD =  1.045590E-02  AMPS/M

********************NEAR MAGNETIC FIELDS********************
         FIELD POINT: X = -1         Y = -1         Z =  4       
  VECTOR      REAL          IMAGINARY     MAGNITUDE     PHASE
 COMPONENT     AMPS/M        AMPS/M        AMPS/M        DEG
   X           0             0             0             0
   Y          -7.641457E-03  1.059741E-02  1.306510E-02  125.7942
   Z          -1.910341E-03  2.649338E-03  3.266251E-03  125.794
   MAXIMUM OR PEAK FIELD =  1.346719E-02  AMPS/M

********************NEAR MAGNETIC FIELDS********************
         FIELD POINT: X =  0         Y = -1         Z =  4       
  VECTOR      REAL          IMAGINARY     MAGNITUDE     PHASE
 COMPONENT     AMPS/M        AMPS/M        AMPS/M        DEG
   X           0             0             0             0
   Y          -1.099554E-02  1.291675E-02  1.696303E-02  130.4065
   Z          -2.748838E-03  3.229158E-03  4.240704E-03  130.4063
   MAXIMUM OR PEAK FIELD =  1.748508E-02  AMPS/M

********************NEAR MAGNETIC FIELDS********************
         FIELD POINT: X =  1         Y = -1         Z =  4       
  VECTOR      REAL          IMAGINARY     MAGNITUDE     PHASE
 COMPONENT     AMPS/M        AMPS/M        AMPS/M        DEG
   X           0             0             0             0
   Y          -1.518877E-02  1.570974E-02  2.185165E-02  134.034
   Z          -3.797104E-03  3.927380E-03  5.462812E-03  134.0338
   MAXIMUM OR PEAK FIELD =  2.252414E-02  AMPS/M

********************NEAR MAGNETIC FIELDS********************
         FIELD POINT: X =  2         Y = -1         Z =  4       
  VECTOR      REAL          IMAGINARY     MAGNITUDE     PHASE
 COMPONENT     AMPS/M        AMPS/M        AMPS/M        DEG
   X           0             0             0             0
   Y          -2.001746E-02  1.883114E-02  2.748291E-02  136.7491
   Z          -5.004227E-03  4.707699E-03  6.870569E-03  136.7488
   MAXIMUM OR PEAK FIELD =  2.832870E-02  AMPS/M

********************NEAR MAGNETIC FIELDS********************
         FIELD POINT: X = -2         Y =  0         Z =  4       
  VECTOR      REAL          IMAGINARY     MAGNITUDE     PHASE
 COMPONENT     AMPS/M        AMPS/M        AMPS/M        DEG
   X           0             0             0             0
   Y          -5.298739E-03  8.885109E-03  1.034513E-02  120.8102
   Z           0             0             0             0
   MAXIMUM OR PEAK FIELD =  1.034513E-02  AMPS/M

********************NEAR MAGNETIC FIELDS********************
         FIELD POINT: X = -1         Y =  0         Z =  4       
  VECTOR      REAL          IMAGINARY     MAGNITUDE     PHASE
 COMPONENT     AMPS/M        AMPS/M        AMPS/M        DEG
   X           0             0             0             0
   Y          -7.950695E-03  1.080211E-02  1.341265E-02  126.3542
   Z           0             0             0             0
   MAXIMUM OR PEAK FIELD =  1.341265E-02  AMPS/M

********************NEAR MAGNETIC FIELDS********************
         FIELD POINT: X =  0         Y =  0         Z =  4       
  VECTOR      REAL          IMAGINARY     MAGNITUDE     PHASE
 COMPONENT     AMPS/M        AMPS/M        AMPS/M        DEG
   X           0             0             0             0
   Y          -1.151172E-02  1.324973E-02  1.755206E-02  130.985
   Z           0             0             0             0
   MAXIMUM OR PEAK FIELD =  1.755206E-02  AMPS/M

********************NEAR MAGNETIC FIELDS********************
         FIELD POINT: X =  1         Y =  0         Z =  4       
  VECTOR      REAL          IMAGINARY     MAGNITUDE     PHASE
 COMPONENT     AMPS/M        AMPS/M        AMPS/M        DEG
   X           0             0             0             0
   Y          -1.600229E-02  1.622570E-02  2.278917E-02  134.6028
   Z           0             0             0             0
   MAXIMUM OR PEAK FIELD =  2.278917E-02  AMPS/M

********************NEAR MAGNETIC FIELDS********************
         FIELD POINT: X =  2         Y =  0         Z =  4       
  VECTOR      REAL          IMAGINARY     MAGNITUDE     PHASE
 COMPONENT     AMPS/M        AMPS/M        AMPS/M        DEG
   X           0             0             0             0
   Y          -2.119410E-02  1.956747E-02  2.884572E-02  137.2852
   Z           0             0             0             0
   MAXIMUM OR PEAK FIELD =  2.884572E-02  AMPS/M

********************NEAR MAGNETIC FIELDS********************
         FIELD POINT: X = -2         Y =  1         Z =  4       
  VECTOR      REAL          IMAGINARY     MAGNITUDE     PHASE
 COMPONENT     AMPS/M        AMPS/M        AMPS/M        DEG
   X           0             0             0             0
   Y          -5.115960E-03  8.759107E-03  1.014372E-02  120.2881
   Z           1.278979E-03 -2.189770E-03  2.535918E-03 -59.71207
   MAXIMUM OR PEAK FIELD =  1.045590E-02  AMPS/M

********************NEAR MAGNETIC FIELDS********************
         FIELD POINT: X = -1         Y =  1         Z =  4       
  VECTOR      REAL          IMAGINARY     MAGNITUDE     PHASE
 COMPONENT     AMPS/M        AMPS/M        AMPS/M        DEG
   X           0             0             0             0
   Y          -7.641457E-03  1.059741E-02  1.306510E-02  125.7942
   Z           1.910341E-03 -2.649338E-03  3.266251E-03 -54.206
   MAXIMUM OR PEAK FIELD =  1.346719E-02  AMPS/M

********************NEAR MAGNETIC FIELDS********************
         FIELD POINT: X =  0         Y =  1         Z =  4       
  VECTOR      REAL          IMAGINARY     MAGNITUDE     PHASE
 COMPONENT     AMPS/M        AMPS/M        AMPS/M        DEG
   X           0             0             0             0
   Y          -1.099554E-02  1.291675E-02  1.696303E-02  130.4065
   Z           2.748838E-03 -3.229158E-03  4.240704E-03 -49.59373
   MAXIMUM OR PEAK FIELD =  1.748508E-02  AMPS/M

********************NEAR MAGNETIC FIELDS********************
         FIELD POINT: X =  1         Y =  1         Z =  4       
  VECTOR      REAL          IMAGINARY     MAGNITUDE     PHASE
 COMPONENT     AMPS/M        AMPS/M        AMPS/M        DEG
   X           0             0             0             0
   Y          -1.518877E-02  1.570974E-02  2.185165E-02  134.034
   Z           3.797104E-03 -3.927380E-03  5.462812E-03 -45.96622
   MAXIMUM OR PEAK FIELD =  2.252414E-02  AMPS/M

********************NEAR MAGNETIC FIELDS********************
         FIELD POINT: X =  2         Y =  1         Z =  4       
  VECTOR      REAL          IMAGINARY     MAGNITUDE     PHASE
 COMPONENT     AMPS/M        AMPS/M        AMPS/M        DEG
   X           0             0             0             0
   Y          -2.001746E-02  1.883114E-02  2.748291E-02  136.7491
   Z           5.004227E-03 -4.707699E-03  6.870569E-03 -43.25116
   MAXIMUM OR PEAK FIELD =  2.832870E-02  AMPS/M

********************NEAR MAGNETIC FIELDS********************
         FIELD POINT: X = -2         Y =  2         Z =  4       
  VECTOR      REAL          IMAGINARY     MAGNITUDE     PHASE
 COMPONENT     AMPS/M        AMPS/M        AMPS/M        DEG
   X           0             0             0             0
   Y          -4.620587E-03  8.414305E-03  9.599498E-03  118.7727
   Z           2.310280E-03 -4.207144E-03  4.799735E-03 -61.22737
   MAXIMUM OR PEAK FIELD =  1.073256E-02  AMPS/M

********************NEAR MAGNETIC FIELDS********************
         FIELD POINT: X = -1         Y =  2         Z =  4       
  VECTOR      REAL          IMAGINARY     MAGNITUDE     PHASE
 COMPONENT     AMPS/M        AMPS/M        AMPS/M        DEG
   X           0             0             0             0
   Y          -6.827594E-03  1.005462E-02  1.215366E-02  124.1785
   Z           3.413770E-03 -5.027294E-03  6.076802E-03 -55.82164
   MAXIMUM OR PEAK FIELD =  1.358819E-02  AMPS/M

********************NEAR MAGNETIC FIELDS********************
         FIELD POINT: X =  0         Y =  2         Z =  4       
  VECTOR      REAL          IMAGINARY     MAGNITUDE     PHASE
 COMPONENT     AMPS/M        AMPS/M        AMPS/M        DEG
   X           0             0             0             0
   Y          -9.678817E-03  1.206287E-02  1.546585E-02  128.7423
   Z           4.839357E-03 -6.031403E-03  7.732865E-03 -51.25784
   MAXIMUM OR PEAK FIELD =  1.729132E-02  AMPS/M

********************NEAR MAGNETIC FIELDS********************
         FIELD POINT: X =  1         Y =  2         Z =  4       
  VECTOR      REAL          IMAGINARY     MAGNITUDE     PHASE
 COMPONENT     AMPS/M        AMPS/M        AMPS/M        DEG
   X           0             0             0             0
   Y          -1.316687E-02  1.442301E-02  1.952920E-02  132.3932
   Z           6.583346E-03 -7.211447E-03  9.764498E-03 -47.60698
   MAXIMUM OR PEAK FIELD =  2.183426E-02  AMPS/M

********************NEAR MAGNETIC FIELDS********************
         FIELD POINT: X =  2         Y =  2         Z =  4       
  VECTOR      REAL          IMAGINARY     MAGNITUDE     PHASE
 COMPONENT     AMPS/M        AMPS/M        AMPS/M        DEG
   X           0             0             0             0
   Y          -1.714059E-02  1.702690E-02  2.416020E-02  135.1906
   Z           8.570159E-03 -8.513367E-03  1.207994E-02 -44.80953
   MAXIMUM OR PEAK FIELD =  2.701186E-02  AMPS/M

