                   ****************************************
                     MINI-NUMERICAL ELECTROMAGNETICS CODE
                                   MININEC
                       06-22-2022              23:28:17
                   ****************************************
 
FREQUENCY (MHZ): 7 
    WAVE LENGTH =  42.82857  METERS
 
ENVIRONMENT (+1 FOR FREE SPACE, -1 FOR GROUND PLANE):  1 
 
NO. OF WIRES: 1 
 
WIRE NO. 1 
            COORDINATES                                 END         NO. OF
   X             Y             Z          RADIUS     CONNECTION     SEGMENTS
 0             0             0                           0 
 21.41429      0             0             .01           0             10 
 
                  **** ANTENNA GEOMETRY ****
 
WIRE NO.  1  COORDINATES                                CONNECTION PULSE
X             Y             Z             RADIUS        END1 END2  NO.
 2.141429      0             0             .01            0    1    1
 4.282857      0             0             .01            1    1    2
 6.424286      0             0             .01            1    1    3
 8.565714      0             0             .01            1    1    4
 10.70714      0             0             .01            1    1    5
 12.84857      0             0             .01            1    1    6
 14.99         0             0             .01            1    1    7
 17.13143      0             0             .01            1    1    8
 19.27286      0             0             .01            1    0    9
 
NO. OF SOURCES :  1 
PULSE NO., VOLTAGE MAGNITUDE, PHASE (DEGREES):  5 , 1 , 0 
NUMBER OF LOADS 0 
 
FILL MATRIX  : 0:01
FACTOR MATRIX: 0:00
 
********************    SOURCE DATA     ********************
PULSE  5      VOLTAGE = ( 1 , 0 J)
              CURRENT = ( 1.006865E-02 ,-5.166676E-03 J)
              IMPEDANCE = ( 78.61698 , 40.34192 J)
              POWER =  5.034323E-03  WATTS
 
********************     FAR FIELD      ********************
 
ZENITH ANGLE : INITIAL,INCREMENT,NUMBER:  0 , 10 , 19 
AZIMUTH ANGLE: INITIAL,INCREMENT,NUMBER:  0 , 10 , 37 
 
 
FILENAME (NAME.OUT): DIPOLE01.GNN
 
********************    PATTERN DATA    ********************
ZENITH        AZIMUTH       VERTICAL      HORIZONTAL    TOTAL
 ANGLE         ANGLE        PATTERN (DB)  PATTERN (DB)  PATTERN (DB)
 0             0             2.140532     -999           2.140532 
 10            0             1.946267     -999           1.946267 
 20            0             1.361733     -999           1.361733 
 30            0             .3789586     -999           .3789586 
 40            0            -1.025941     -999          -1.025941 
 50            0            -2.915405     -999          -2.915405 
 60            0            -5.445513     -999          -5.445513 
 70            0            -9.031043     -999          -9.031043 
 80            0            -15.10781     -999          -15.10781 
 90            0            -142.4101     -999          -142.4101 
 100           0            -15.10781     -999          -15.10781 
 110           0            -9.031043     -999          -9.031043 
 120           0            -5.445511     -999          -5.445511 
 130           0            -2.915405     -999          -2.915405 
 140           0            -1.025941     -999          -1.025941 
 150           0             .3789586     -999           .3789586 
 160           0             1.361731     -999           1.361731 
 170           0             1.946266     -999           1.946266 
 180           0             2.14053      -999           2.14053 
 0             10            2.00756      -13.06626      2.140533 
 10            10            1.815143     -13.1257       1.952186 
 20            10            1.235981     -13.29755      1.386267 
 30            10            .261564      -13.56285      .4379709 
 40            10           -1.132859     -13.89172     -.9086457 
 50            10           -3.01089      -14.24601     -2.695794 
 60            10           -5.529972     -14.58311     -5.020894 
 70            10           -9.1063       -14.86103     -8.082682 
 80            10           -15.17695     -15.04399     -12.09962 
 90            10           -142.4771     -15.10782     -15.10782 
 100           10           -15.17696     -15.04399     -12.09962 
 110           10           -9.1063       -14.86103     -8.082682 
 120           10           -5.529972     -14.58311     -5.020893 
 130           10           -3.01089      -14.24601     -2.695794 
 140           10           -1.132859     -13.89172     -.9086457 
 150           10            .261564      -13.56285      .4379709 
 160           10            1.23598      -13.29755      1.386267 
 170           10            1.815143     -13.1257       1.952185 
 180           10            2.007558     -13.06626      2.140531 
 0             20            1.600241     -7.178554      2.140531 
 10            20            1.413152     -7.23267       1.969209 
 20            20            .8494451     -7.389059      1.456521 
 30            20           -.100943      -7.630333      .6054739 
 40            20           -1.46529      -7.929134     -.5812666 
 50            20           -3.310548     -8.250643     -2.102739 
 60            20           -5.798079     -8.556195     -3.951433 
 70            20           -9.348115     -8.807825     -6.059236 
 80            20           -15.40132     -8.97333      -8.082682 
 90            20           -142.6953     -9.031043     -9.031043 
 100           20           -15.40132     -8.97333      -8.082682 
 110           20           -9.348115     -8.807825     -6.059236 
 120           20           -5.798078     -8.556195     -3.951432 
 130           20           -3.310548     -8.250643     -2.102739 
 140           20           -1.46529      -7.929134     -.5812666 
 150           20           -.100943      -7.630333      .6054739 
 160           20            .8494425     -7.38906       1.456519 
 170           20            1.413153     -7.232669      1.96921 
 180           20            1.60024      -7.178554      2.14053 
 0             30            .8911281     -3.880144      2.140531 
 10            30            .7121979     -3.926101      1.995228 
 20            30            .1721421     -4.05884       1.563049 
 30            30           -.741539      -4.263407      .8554903 
 40            30           -2.060054     -4.516375     -.1064864 
 50            30           -3.855523     -4.788094     -1.286487 
 60            30           -6.295267     -5.045862     -2.615451 
 70            30           -9.805599     -5.257787     -3.951431 
 80            30           -15.83251     -5.396998     -5.020892 
 90            30           -143.1173     -5.445511     -5.445511 
 100           30           -15.83251     -5.396998     -5.020892 
 110           30           -9.805599     -5.257787     -3.951431 
 120           30           -6.295266     -5.045862     -2.615451 
 130           30           -3.855523     -4.788094     -1.286487 
 140           30           -2.060054     -4.516375     -.1064864 
 150           30           -.741539      -4.263407      .8554903 
 160           30            .1721411     -4.05884       1.563048 
 170           30            .7121983     -3.926101      1.995229 
 180           30            .891126      -3.880145      2.14053 
 0             40           -.1744189     -1.698166      2.140531 
 10            40           -.3433434     -1.734119      2.027042 
 20            40           -.8544295     -1.837888      1.691958 
 30            40           -1.723261     -1.997606      1.15207 
 40            40           -2.985961     -2.194758      .4379713 
 50            40           -4.721031     -2.406081     -.4007678 
 60            40           -7.103047     -2.606118     -1.286487 
 70            40           -10.56559     -2.770257     -2.102739 
 80            40           -16.56096     -2.877917     -2.695794 
 90            40           -143.8347     -2.915405     -2.915405 
 100           40           -16.56096     -2.877917     -2.695794 
 110           40           -10.56559     -2.770257     -2.102739 
 120           40           -7.103046     -2.606118     -1.286487 
 130           40           -4.721031     -2.406081     -.4007678 
 140           40           -2.985961     -2.194758      .4379713 
 150           40           -1.723261     -1.997606      1.15207 
 160           40           -.854432      -1.837888      1.691956 
 170           40           -.3433439     -1.73412       2.027042 
 180           40           -.1744205     -1.698167      2.14053 
 0             50           -1.698166     -.1744189      2.140531 
 10            50           -1.856448     -.1997274      2.060775 
 20            50           -2.336764     -.2727256      1.827075 
 30            50           -3.158077     -.3849237      1.456521 
 40            50           -4.361859     -.5231602      .9788207 
 50            50           -6.033457     -.6710092      .4379718 
 60            50           -8.355075     -.8106494     -.1064859 
 70            50           -11.76783     -.9249993     -.5812671 
 80            50           -17.73042     -.9998863     -.9086457 
 90            50           -144.9928     -1.025941     -1.025941 
 100           50           -17.73042     -.9998863     -.9086457 
 110           50           -11.76783     -.9249993     -.5812671 
 120           50           -8.355074     -.8106494     -.1064859 
 130           50           -6.033457     -.6710092      .4379718 
 140           50           -4.361859     -.5231602      .9788207 
 150           50           -3.158077     -.3849237      1.456521 
 160           50           -2.336764     -.2727239      1.827076 
 170           50           -1.856448     -.1997279      2.060774 
 180           50           -1.698168     -.1744195      2.14053 
 0             60           -3.880145      .8911281      2.140531 
 10            60           -4.02843       .875816       2.092356 
 20            60           -4.479879      .8316848      1.952185 
 30            60           -5.256737      .7639409      1.733053 
 40            60           -6.405601      .6806226      1.456521 
 50            60           -8.018282      .5916888      1.15207 
 60            60           -10.28409      .5078651      .8554903 
 70            60           -13.65101      .4393486      .6054753 
 80            60           -19.58352      .3945368      .4379713 
 90            60           -146.8354      .3789582      .3789582 
 100           60           -19.58352      .3945368      .4379713 
 110           60           -13.65101      .4393486      .6054753 
 120           60           -10.28408      .5078651      .8554903 
 130           60           -8.018282      .5916888      1.15207 
 140           60           -6.405601      .6806226      1.456521 
 150           60           -5.256737      .7639409      1.733053 
 160           60           -4.479879      .8316861      1.952186 
 170           60           -4.02843       .8758164      2.092356 
 180           60           -3.880147      .8911273      2.14053 
 0             70           -7.178554      1.600241      2.140531 
 10            70           -7.318689      1.59308       2.118024 
 20            70           -7.746643      1.572442      2.052894 
 30            70           -8.4874        1.540798      1.952186 
 40            70           -9.591809      1.501935      1.827076 
 50            70           -11.15697      1.46052       1.691958 
 60            70           -13.37792      1.421545      1.563049 
 70            70           -16.70815      1.389736      1.456522 
 80            70           -22.61663      1.368953      1.386267 
 90            70           -149.8602      1.361733      1.361733 
 100           70           -22.61663      1.368953      1.386267 
 110           70           -16.70815      1.389736      1.456522 
 120           70           -13.37792      1.421545      1.563049 
 130           70           -11.15697      1.46052       1.691958 
 140           70           -9.591809      1.501935      1.827076 
 150           70           -8.4874        1.540798      1.952186 
 160           70           -7.746644      1.572442      2.052893 
 170           70           -7.318689      1.593079      2.118024 
 180           70           -7.178555      1.600241      2.140531 
 0             80           -13.06625      2.00756       2.140533 
 10            80           -13.20107      2.005713      2.134735 
 20            80           -13.61371      2.000397      2.118024 
 30            80           -14.33097      1.992248      2.092357 
 40            80           -15.40651      1.982251      2.060775 
 50            80           -16.94091      1.971606      2.027041 
 60            80           -19.13289      1.961603      1.99523 
 70            80           -22.43946      1.953444      1.969211 
 80            80           -28.33248      1.948117      1.952187 
 90            80           -155.5706      1.946266      1.946266 
 100           80           -28.33248      1.948117      1.952187 
 110           80           -22.43946      1.953444      1.969211 
 120           80           -19.13289      1.961603      1.99523 
 130           80           -16.94091      1.971606      2.027041 
 140           80           -15.40651      1.982251      2.060775 
 150           80           -14.33097      1.992248      2.092357 
 160           80           -13.61371      2.000397      2.118024 
 170           80           -13.20107      2.005713      2.134735 
 180           80           -13.06626      2.007558      2.14053 
 0             90           -140.3026      2.140531      2.140531 
 10            90           -140.4355      2.14053       2.14053 
 20            90           -140.8429      2.14053       2.14053 
 30            90           -141.552       2.140529      2.140529 
 40            90           -142.6175      2.14053       2.14053 
 50            90           -144.1413      2.14053       2.14053 
 60            90           -146.3232      2.14053       2.14053 
 70            90           -149.6216      2.14053       2.14053 
 80            90           -155.5094      2.14053       2.14053 
 90            90           -282.7456      2.14053       2.14053 
 100           90           -155.5094      2.14053       2.14053 
 110           90           -149.6216      2.14053       2.14053 
 120           90           -146.3232      2.14053       2.14053 
 130           90           -144.1413      2.14053       2.14053 
 140           90           -142.6175      2.14053       2.14053 
 150           90           -141.552       2.140529      2.140529 
 160           90           -140.8429      2.14053       2.14053 
 170           90           -140.4355      2.14053       2.14053 
 180           90           -140.3026      2.140531      2.140531 
 0             100          -13.06626      2.00756       2.140533 
 10            100          -13.20108      2.005712      2.134734 
 20            100          -13.61371      2.000395      2.118021 
 30            100          -14.33097      1.992248      2.092357 
 40            100          -15.40652      1.98225       2.060774 
 50            100          -16.94091      1.971606      2.027041 
 60            100          -19.13289      1.961602      1.995228 
 70            100          -22.43946      1.953443      1.96921 
 80            100          -28.33249      1.948116      1.952185 
 90            100          -155.5706      1.946267      1.946267 
 100           100          -28.33249      1.948116      1.952185 
 110           100          -22.43946      1.953443      1.96921 
 120           100          -19.13289      1.961602      1.995228 
 130           100          -16.94091      1.971606      2.027041 
 140           100          -15.40652      1.98225       2.060774 
 150           100          -14.33097      1.992248      2.092357 
 160           100          -13.61371      2.000395      2.118021 
 170           100          -13.20108      2.005712      2.134734 
 180           100          -13.06626      2.007558      2.14053 
 0             110          -7.178554      1.600241      2.140531 
 10            110          -7.31869       1.593077      2.118021 
 20            110          -7.746642      1.572443      2.052894 
 30            110          -8.4874        1.540798      1.952185 
 40            110          -9.591811      1.501934      1.827075 
 50            110          -11.15698      1.460519      1.691957 
 60            110          -13.37793      1.421544      1.563048 
 70            110          -16.70815      1.389736      1.456521 
 80            110          -22.61663      1.368955      1.386269 
 90            110          -149.8602      1.361734      1.361734 
 100           110          -22.61663      1.368955      1.386269 
 110           110          -16.70815      1.389736      1.456521 
 120           110          -13.37793      1.421544      1.563048 
 130           110          -11.15698      1.460519      1.691957 
 140           110          -9.591811      1.501934      1.827075 
 150           110          -8.4874        1.540798      1.952185 
 160           110          -7.746643      1.572444      2.052895 
 170           110          -7.31869       1.593077      2.118021 
 180           110          -7.178556      1.60024       2.14053 
 0             120          -3.880144      .8911281      2.140531 
 10            120          -4.028429      .875816       2.092356 
 20            120          -4.479878      .8316848      1.952185 
 30            120          -5.256735      .7639414      1.733054 
 40            120          -6.405601      .680623       1.456521 
 50            120          -8.01828       .5916902      1.152072 
 60            120          -10.28408      .5078646      .85549 
 70            120          -13.65101      .4393481      .6054748 
 80            120          -19.58352      .3945378      .4379723 
 90            120          -146.8354      .3789572      .3789572 
 100           120          -19.58352      .3945378      .4379723 
 110           120          -13.65101      .4393481      .6054748 
 120           120          -10.28408      .5078646      .8554903 
 130           120          -8.01828       .5916902      1.152072 
 140           120          -6.405601      .680623       1.456521 
 150           120          -5.256735      .7639414      1.733054 
 160           120          -4.479879      .8316861      1.952186 
 170           120          -4.028428      .875816       2.092356 
 180           120          -3.880146      .8911265      2.14053 
 0             130          -1.698166     -.1744189      2.140531 
 10            130          -1.85645      -.1997282      2.060773 
 20            130          -2.336764     -.2727256      1.827075 
 30            130          -3.158078     -.3849245      1.45652 
 40            130          -4.361859     -.5231608      .9788207 
 50            130          -6.033457     -.6710092      .4379723 
 60            130          -8.355074     -.8106485     -.1064848 
 70            130          -11.76783     -.9249991     -.5812666 
 80            130          -17.73042     -.9998869     -.9086464 
 90            130          -144.9928     -1.025941     -1.025941 
 100           130          -17.73042     -.9998869     -.9086464 
 110           130          -11.76783     -.9249991     -.5812666 
 120           130          -8.355074     -.8106485     -.1064848 
 130           130          -6.033457     -.6710092      .4379723 
 140           130          -4.361859     -.5231608      .9788207 
 150           130          -3.158078     -.3849245      1.45652 
 160           130          -2.336764     -.2727256      1.827075 
 170           130          -1.856448     -.1997287      2.060773 
 180           130          -1.698169     -.1744203      2.14053 
 0             140          -.1744189     -1.698166      2.140531 
 10            140          -.3433439     -1.73412       2.027042 
 20            140          -.8544311     -1.837889      1.691956 
 30            140          -1.72326      -1.997605      1.152072 
 40            140          -2.98596      -2.194758      .4379713 
 50            140          -4.72103      -2.40608      -.4007672 
 60            140          -7.103048     -2.606119     -1.286488 
 70            140          -10.56559     -2.770256     -2.102738 
 80            140          -16.56095     -2.877917     -2.695793 
 90            140          -143.8347     -2.915405     -2.915405 
 100           140          -16.56096     -2.877917     -2.695793 
 110           140          -10.56559     -2.770256     -2.102738 
 120           140          -7.103046     -2.606119     -1.286487 
 130           140          -4.72103      -2.40608      -.4007672 
 140           140          -2.98596      -2.194758      .4379713 
 150           140          -1.72326      -1.997605      1.152072 
 160           140          -.8544339     -1.83789       1.691954 
 170           140          -.3433434     -1.73412       2.027042 
 180           140          -.1744211     -1.698168      2.14053 
 0             150           .8911281     -3.880144      2.140531 
 10            150           .7121979     -3.926102      1.995228 
 20            150           .1721401     -4.058841      1.563047 
 30            150          -.741539      -4.263407      .8554903 
 40            150          -2.060052     -4.516374     -.1064851 
 50            150          -3.855523     -4.788095     -1.286487 
 60            150          -6.295267     -5.045862     -2.615451 
 70            150          -9.805599     -5.257787     -3.951431 
 80            150          -15.83251     -5.396997     -5.02089 
 90            150          -143.1173     -5.44551      -5.44551 
 100           150          -15.83251     -5.396997     -5.020891 
 110           150          -9.805599     -5.257787     -3.951431 
 120           150          -6.295266     -5.045862     -2.615451 
 130           150          -3.855523     -4.788095     -1.286487 
 140           150          -2.060052     -4.516374     -.1064851 
 150           150          -.741539      -4.263407      .8554903 
 160           150           .1721406     -4.05884       1.563048 
 170           150           .7121987     -3.926101      1.995229 
 180           150           .891126      -3.880145      2.14053 
 0             160           1.60024      -7.178551      2.140531 
 10            160           1.413151     -7.232667      1.969209 
 20            160           .8494438     -7.389055      1.45652 
 30            160          -.1009438     -7.630331      .6054739 
 40            160          -1.46529      -7.92913      -.5812666 
 50            160          -3.310548     -8.25064      -2.102739 
 60            160          -5.798079     -8.556192     -3.951432 
 70            160          -9.348113     -8.807818     -6.059232 
 80            160          -15.40132     -8.973323     -8.082676 
 90            160          -142.6953     -9.031039     -9.031039 
 100           160          -15.40132     -8.973323     -8.082676 
 110           160          -9.348113     -8.807818     -6.059232 
 120           160          -5.798078     -8.556192     -3.95143 
 130           160          -3.310548     -8.25064      -2.102739 
 140           160          -1.46529      -7.92913      -.5812666 
 150           160          -.1009438     -7.630331      .6054739 
 160           160           .8494429     -7.389056      1.456519 
 170           160           1.413151     -7.232667      1.969209 
 180           160           1.600239     -7.178552      2.14053 
 0             170           2.00756      -13.06625      2.140533 
 10            170           1.815143     -13.12569      1.952186 
 20            170           1.235982     -13.29754      1.386269 
 30            170           .261564      -13.56284      .4379713 
 40            170          -1.13286      -13.89172     -.9086471 
 50            170          -3.010889     -14.246       -2.695793 
 60            170          -5.529971     -14.58311     -5.020891 
 70            170          -9.1063       -14.86103     -8.082681 
 80            170          -15.17695     -15.04398     -12.09962 
 90            170          -142.4771     -15.10781     -15.10781 
 100           170          -15.17696     -15.04398     -12.09962 
 110           170          -9.1063       -14.86103     -8.082681 
 120           170          -5.529969     -14.58311     -5.020891 
 130           170          -3.010889     -14.246       -2.695793 
 140           170          -1.13286      -13.89172     -.9086471 
 150           170           .261564      -13.56284      .4379713 
 160           170           1.235979     -13.29754      1.386266 
 170           170           1.815145     -13.12569      1.952187 
 180           170           2.007558     -13.06625      2.14053 
 0             180           2.140531     -134.2819      2.140531 
 10            180           1.946266     -134.3432      1.946266 
 20            180           1.361733     -134.5204      1.361733 
 30            180           .3789563     -134.7941      .3789563 
 40            180          -1.025943     -135.1334     -1.025943 
 50            180          -2.915406     -135.4991     -2.915406 
 60            180          -5.445511     -135.8473     -5.445511 
 70            180          -9.031043     -136.1344     -9.031043 
 80            180          -15.10781     -136.3235     -15.10781 
 90            180          -142.4101     -136.3894     -135.4203 
 100           180          -15.10781     -136.3235     -15.10781 
 110           180          -9.031043     -136.1344     -9.031043 
 120           180          -5.44551      -135.8473     -5.44551 
 130           180          -2.915406     -135.4991     -2.915406 
 140           180          -1.025943     -135.1334     -1.025943 
 150           180           .3789563     -134.7941      .3789563 
 160           180           1.361731     -134.5204      1.361731 
 170           180           1.946266     -134.3432      1.946266 
 180           180           2.140529     -134.2819      2.140529 
 0             190           2.00756      -13.06625      2.140533 
 10            190           1.815143     -13.1257       1.952186 
 20            190           1.235982     -13.29754      1.386269 
 30            190           .261564      -13.56285      .4379713 
 40            190          -1.13286      -13.89172     -.9086473 
 50            190          -3.010889     -14.246       -2.695793 
 60            190          -5.529971     -14.58311     -5.020891 
 70            190          -9.1063       -14.86103     -8.082681 
 80            190          -15.17695     -15.04398     -12.09962 
 90            190          -142.4771     -15.10781     -15.10781 
 100           190          -15.17696     -15.04398     -12.09962 
 110           190          -9.1063       -14.86103     -8.082681 
 120           190          -5.529969     -14.58311     -5.020891 
 130           190          -3.010889     -14.246       -2.695793 
 140           190          -1.13286      -13.89172     -.9086473 
 150           190           .261564      -13.56285      .4379713 
 160           190           1.235979     -13.29754      1.386266 
 170           190           1.815145     -13.12569      1.952187 
 180           190           2.007558     -13.06626      2.14053 
 0             200           1.60024      -7.178552      2.14053 
 10            200           1.413151     -7.232668      1.969208 
 20            200           .8494438     -7.389057      1.45652 
 30            200          -.1009438     -7.630332      .6054735 
 40            200          -1.46529      -7.929131     -.5812668 
 50            200          -3.310548     -8.250641     -2.102739 
 60            200          -5.798079     -8.556193     -3.951432 
 70            200          -9.348113     -8.80782      -6.059234 
 80            200          -15.40132     -8.973326     -8.082677 
 90            200          -142.6953     -9.031041     -9.031041 
 100           200          -15.40132     -8.973326     -8.082678 
 110           200          -9.348113     -8.80782      -6.059234 
 120           200          -5.798078     -8.556193     -3.951431 
 130           200          -3.310548     -8.250641     -2.102739 
 140           200          -1.46529      -7.929131     -.5812668 
 150           200          -.1009438     -7.630332      .6054735 
 160           200           .8494429     -7.389058      1.456519 
 170           200           1.413151     -7.232669      1.969208 
 180           200           1.600239     -7.178553      2.14053 
 0             210           .8911281     -3.880145      2.140531 
 10            210           .7121979     -3.926102      1.995228 
 20            210           .1721401     -4.058841      1.563047 
 30            210          -.741539      -4.263408      .85549 
 40            210          -2.060052     -4.516374     -.1064854 
 50            210          -3.855523     -4.788096     -1.286488 
 60            210          -6.295267     -5.045863     -2.615452 
 70            210          -9.805599     -5.257788     -3.951433 
 80            210          -15.83251     -5.396998     -5.020891 
 90            210          -143.1173     -5.44551      -5.44551 
 100           210          -15.83251     -5.396998     -5.020892 
 110           210          -9.805599     -5.257788     -3.951433 
 120           210          -6.295266     -5.045863     -2.615451 
 130           210          -3.855523     -4.788096     -1.286488 
 140           210          -2.060052     -4.516374     -.1064854 
 150           210          -.741539      -4.263408      .85549 
 160           210           .1721406     -4.05884       1.563048 
 170           210           .7121987     -3.926102      1.995229 
 180           210           .891126      -3.880145      2.14053 
 0             220          -.1744189     -1.698169      2.14053 
 10            220          -.3433439     -1.734121      2.027041 
 20            220          -.8544311     -1.837891      1.691956 
 30            220          -1.72326      -1.997607      1.15207 
 40            220          -2.98596      -2.19476       .4379704 
 50            220          -4.72103      -2.406082     -.4007678 
 60            220          -7.103048     -2.60612      -1.286489 
 70            220          -10.56559     -2.770258     -2.10274 
 80            220          -16.56095     -2.877918     -2.695794 
 90            220          -143.8347     -2.915407     -2.915407 
 100           220          -16.56096     -2.877918     -2.695794 
 110           220          -10.56559     -2.770258     -2.10274 
 120           220          -7.103046     -2.60612      -1.286488 
 130           220          -4.72103      -2.406082     -.4007678 
 140           220          -2.98596      -2.19476       .4379704 
 150           220          -1.72326      -1.997607      1.15207 
 160           220          -.8544339     -1.837892      1.691953 
 170           220          -.3433434     -1.734121      2.027041 
 180           220          -.1744211     -1.69817       2.140529 
 0             230          -1.698169     -.1744176      2.140531 
 10            230          -1.85645      -.1997266      2.060774 
 20            230          -2.336766     -.2727239      1.827075 
 30            230          -3.158079     -.3849231      1.456521 
 40            230          -4.361861     -.5231594      .978821 
 50            230          -6.033459     -.671008       .4379723 
 60            230          -8.355075     -.8106462     -.1064832 
 70            230          -11.76783     -.9249965     -.5812645 
 80            230          -17.73042     -.9998853     -.9086449 
 90            230          -144.9928     -1.025941     -1.025941 
 100           230          -17.73042     -.9998853     -.9086449 
 110           230          -11.76783     -.9249965     -.5812645 
 120           230          -8.355075     -.8106462     -.1064832 
 130           230          -6.033459     -.671008       .4379723 
 140           230          -4.361861     -.5231594      .978821 
 150           230          -3.158079     -.3849231      1.456521 
 160           230          -2.336767     -.2727239      1.827075 
 170           230          -1.85645      -.1997266      2.060774 
 180           230          -1.698171     -.1744184      2.14053 
 0             240          -3.880146      .8911298      2.140532 
 10            240          -4.028432      .8758173      2.092356 
 20            240          -4.479881      .8316852      1.952185 
 30            240          -5.256737      .7639431      1.733055 
 40            240          -6.405603      .6806244      1.456522 
 50            240          -8.018285      .5916902      1.152071 
 60            240          -10.28409      .5078665      .8554916 
 70            240          -13.65101      .4393496      .6054757 
 80            240          -19.58352      .3945391      .4379736 
 90            240          -146.8354      .3789586      .3789586 
 100           240          -19.58352      .3945391      .4379736 
 110           240          -13.65101      .4393496      .6054757 
 120           240          -10.28409      .5078665      .8554916 
 130           240          -8.018285      .5916902      1.152071 
 140           240          -6.405603      .6806244      1.456522 
 150           240          -5.256737      .7639431      1.733055 
 160           240          -4.479881      .8316865      1.952186 
 170           240          -4.028431      .8758181      2.092357 
 180           240          -3.880148      .8911278      2.14053 
 0             250          -7.178555      1.600241      2.140531 
 10            250          -7.318692      1.593077      2.118021 
 20            250          -7.746644      1.572444      2.052895 
 30            250          -8.487401      1.540798      1.952186 
 40            250          -9.591811      1.501934      1.827075 
 50            250          -11.15698      1.460519      1.691957 
 60            250          -13.37793      1.421545      1.563049 
 70            250          -16.70815      1.389736      1.456522 
 80            250          -22.61663      1.368955      1.386269 
 90            250          -149.8602      1.361733      1.361733 
 100           250          -22.61663      1.368955      1.386269 
 110           250          -16.70815      1.389736      1.456522 
 120           250          -13.37793      1.421545      1.563049 
 130           250          -11.15698      1.460519      1.691957 
 140           250          -9.591811      1.501934      1.827075 
 150           250          -8.487401      1.540798      1.952186 
 160           250          -7.746644      1.572443      2.052894 
 170           250          -7.318692      1.593077      2.118021 
 180           250          -7.178557      1.60024       2.14053 
 0             260          -13.06626      2.00756       2.140532 
 10            260          -13.20108      2.005712      2.134734 
 20            260          -13.61371      2.000395      2.118021 
 30            260          -14.33098      1.992247      2.092356 
 40            260          -15.40652      1.98225       2.060774 
 50            260          -16.94091      1.971607      2.027042 
 60            260          -19.13289      1.961601      1.995228 
 70            260          -22.43946      1.953443      1.96921 
 80            260          -28.33249      1.948115      1.952184 
 90            260          -155.5706      1.946267      1.946267 
 100           260          -28.33249      1.948115      1.952184 
 110           260          -22.43946      1.953443      1.96921 
 120           260          -19.13289      1.961601      1.995228 
 130           260          -16.94091      1.971607      2.027042 
 140           260          -15.40652      1.98225       2.060774 
 150           260          -14.33098      1.992247      2.092356 
 160           260          -13.61371      2.000395      2.118021 
 170           260          -13.20108      2.005712      2.134734 
 180           260          -13.06626      2.007558      2.14053 
 0             270          -156.3324      2.140531      2.140531 
 10            270          -156.4654      2.140531      2.140531 
 20            270          -156.8727      2.140531      2.140531 
 30            270          -157.5818      2.14053       2.14053 
 40            270          -158.6473      2.14053       2.14053 
 50            270          -160.1711      2.14053       2.14053 
 60            270          -162.3531      2.14053       2.14053 
 70            270          -165.6515      2.14053       2.14053 
 80            270          -171.5392      2.14053       2.14053 
 90            270          -298.7755      2.14053       2.14053 
 100           270          -171.5392      2.14053       2.14053 
 110           270          -165.6515      2.14053       2.14053 
 120           270          -162.3531      2.14053       2.14053 
 130           270          -160.1711      2.14053       2.14053 
 140           270          -158.6473      2.14053       2.14053 
 150           270          -157.5818      2.14053       2.14053 
 160           270          -156.8727      2.140531      2.140531 
 170           270          -156.4654      2.140531      2.140531 
 180           270          -156.3324      2.140531      2.140531 
 0             280          -13.06626      2.00756       2.140533 
 10            280          -13.20108      2.005713      2.134735 
 20            280          -13.61371      2.000397      2.118023 
 30            280          -14.33097      1.992247      2.092356 
 40            280          -15.40652      1.982251      2.060775 
 50            280          -16.94091      1.971606      2.027042 
 60            280          -19.13289      1.961602      1.995229 
 70            280          -22.43946      1.953442      1.969209 
 80            280          -28.33249      1.948116      1.952185 
 90            280          -155.5706      1.946267      1.946267 
 100           280          -28.33249      1.948116      1.952185 
 110           280          -22.43946      1.953442      1.969209 
 120           280          -19.13289      1.961602      1.995229 
 130           280          -16.94091      1.971606      2.027042 
 140           280          -15.40652      1.982251      2.060775 
 150           280          -14.33097      1.992247      2.092356 
 160           280          -13.61371      2.000397      2.118023 
 170           280          -13.20108      2.005713      2.134735 
 180           280          -13.06626      2.007558      2.14053 
 0             290          -7.178555      1.600241      2.140531 
 10            290          -7.31869       1.59308       2.118024 
 20            290          -7.746643      1.572444      2.052896 
 30            290          -8.487401      1.540798      1.952186 
 40            290          -9.591811      1.501935      1.827076 
 50            290          -11.15698      1.46052       1.691957 
 60            290          -13.37793      1.421547      1.56305 
 70            290          -16.70815      1.389736      1.456522 
 80            290          -22.61663      1.368954      1.386268 
 90            290          -149.8602      1.361733      1.361733 
 100           290          -22.61663      1.368954      1.386268 
 110           290          -16.70815      1.389736      1.456522 
 120           290          -13.37792      1.421547      1.56305 
 130           290          -11.15698      1.46052       1.691957 
 140           290          -9.591811      1.501935      1.827076 
 150           290          -8.487401      1.540798      1.952186 
 160           290          -7.746645      1.572442      2.052893 
 170           290          -7.31869       1.593079      2.118023 
 180           290          -7.178556      1.600241      2.140531 
 0             300          -3.880146      .8911298      2.140532 
 10            300          -4.028431      .8758181      2.092357 
 20            300          -4.479881      .8316861      1.952186 
 30            300          -5.256738      .7639418      1.733054 
 40            300          -6.405602      .6806239      1.456522 
 50            300          -8.018282      .5916906      1.152072 
 60            300          -10.28409      .5078661      .8554912 
 70            300          -13.65101      .4393505      .6054771 
 80            300          -19.58352      .3945391      .4379736 
 90            300          -146.8354      .3789586      .3789586 
 100           300          -19.58352      .3945391      .4379736 
 110           300          -13.65101      .4393505      .6054771 
 120           300          -10.28409      .5078661      .8554912 
 130           300          -8.018282      .5916906      1.152072 
 140           300          -6.405602      .6806239      1.456522 
 150           300          -5.256738      .7639418      1.733054 
 160           300          -4.47988       .8316874      1.952187 
 170           300          -4.028431      .8758177      2.092357 
 180           300          -3.880148      .891129       2.140531 
 0             310          -1.698169     -.1744176      2.140531 
 10            310          -1.85645      -.1997258      2.060775 
 20            310          -2.336764     -.2727228      1.827076 
 30            310          -3.158079     -.3849217      1.456522 
 40            310          -4.361862     -.5231594      .9788207 
 50            310          -6.033458     -.671008       .4379727 
 60            310          -8.355076     -.8106478     -.1064848 
 70            310          -11.76783     -.9249975     -.5812654 
 80            310          -17.73042     -.9998846     -.9086442 
 90            310          -144.9928     -1.025941     -1.025941 
 100           310          -17.73042     -.9998846     -.9086442 
 110           310          -11.76783     -.9249975     -.5812654 
 120           310          -8.355075     -.8106478     -.1064846 
 130           310          -6.033458     -.671008       .4379727 
 140           310          -4.361862     -.5231594      .9788207 
 150           310          -3.158079     -.3849217      1.456522 
 160           310          -2.336766     -.2727231      1.827076 
 170           310          -1.85645      -.199726       2.060775 
 180           310          -1.69817      -.1744184      2.14053 
 0             320          -.1744203     -1.698165      2.140531 
 10            320          -.3433447     -1.734117      2.027042 
 20            320          -.8544317     -1.837886      1.691957 
 30            320          -1.723263     -1.997604      1.15207 
 40            320          -2.985961     -2.194756      .4379723 
 50            320          -4.721031     -2.406078     -.4007664 
 60            320          -7.103048     -2.606115     -1.286486 
 70            320          -10.5656      -2.770255     -2.102738 
 80            320          -16.56096     -2.877916     -2.695793 
 90            320          -143.8347     -2.915402     -2.915402 
 100           320          -16.56096     -2.877916     -2.695793 
 110           320          -10.5656      -2.770255     -2.102738 
 120           320          -7.103046     -2.606115     -1.286485 
 130           320          -4.721031     -2.406078     -.4007664 
 140           320          -2.985961     -2.194756      .4379723 
 150           320          -1.723263     -1.997604      1.15207 
 160           320          -.8544326     -1.837886      1.691957 
 170           320          -.3433447     -1.734118      2.027042 
 180           320          -.1744219     -1.698166      2.14053 
 0             330           .891127      -3.880142      2.140531 
 10            330           .7121965     -3.926099      1.995228 
 20            330           .1721421     -4.058837      1.56305 
 30            330          -.7415402     -4.263406      .8554896 
 40            330          -2.060054     -4.516373     -.1064859 
 50            330          -3.855523     -4.788092     -1.286487 
 60            330          -6.295268     -5.04586      -2.615451 
 70            330          -9.805601     -5.257784     -3.951429 
 80            330          -15.83251     -5.396996     -5.02089 
 90            330          -143.1173     -5.445509     -5.445509 
 100           330          -15.83252     -5.396996     -5.02089 
 110           330          -9.805601     -5.257784     -3.951429 
 120           330          -6.295266     -5.04586      -2.61545 
 130           330          -3.855523     -4.788092     -1.286487 
 140           330          -2.060054     -4.516373     -.1064859 
 150           330          -.7415402     -4.263406      .8554896 
 160           330           .1721391     -4.058838      1.563047 
 170           330           .712197      -3.926099      1.995228 
 180           330           .8911244     -3.880142      2.14053 
 0             340           1.60024      -7.178547      2.140531 
 10            340           1.413151     -7.232665      1.969209 
 20            340           .8494447     -7.389053      1.456521 
 30            340          -.100943      -7.630326      .6054753 
 40            340          -1.465291     -7.929128     -.5812668 
 50            340          -3.310549     -8.250637     -2.102739 
 60            340          -5.798078     -8.556189     -3.95143 
 70            340          -9.348118     -8.80782      -6.059235 
 80            340          -15.40132     -8.973321     -8.082674 
 90            340          -142.6953     -9.031037     -9.031037 
 100           340          -15.40132     -8.973321     -8.082674 
 110           340          -9.348118     -8.80782      -6.059235 
 120           340          -5.798077     -8.556189     -3.951429 
 130           340          -3.310549     -8.250637     -2.102739 
 140           340          -1.465291     -7.929128     -.5812668 
 150           340          -.100943      -7.630326      .6054753 
 160           340           .8494434     -7.389053      1.45652 
 170           340           1.413152     -7.232662      1.96921 
 180           340           1.600238     -7.178548      2.14053 
 0             350           2.007558     -13.06624      2.140531 
 10            350           1.815142     -13.12569      1.952184 
 20            350           1.235981     -13.29753      1.386268 
 30            350           .2615626     -13.56284      .4379704 
 40            350          -1.13286      -13.89171     -.9086464 
 50            350          -3.010891     -14.24599     -2.695794 
 60            350          -5.529973     -14.5831      -5.020893 
 70            350          -9.1063       -14.86102     -8.082678 
 80            350          -15.17695     -15.04397     -12.09961 
 90            350          -142.4771     -15.1078      -15.1078 
 100           350          -15.17695     -15.04397     -12.09961 
 110           350          -9.1063       -14.86102     -8.082678 
 120           350          -5.529972     -14.5831      -5.020892 
 130           350          -3.010891     -14.24599     -2.695794 
 140           350          -1.13286      -13.89171     -.9086464 
 150           350           .2615626     -13.56284      .4379704 
 160           350           1.23598      -13.29753      1.386267 
 170           350           1.815142     -13.12569      1.952184 
 180           350           2.007557     -13.06624      2.14053 
 0             360           2.140531     -128.2612      2.140531 
 10            360           1.946266     -128.3225      1.946266 
 20            360           1.361731     -128.4997      1.361731 
 30            360           .3789563     -128.7734      .3789563 
 40            360          -1.025942     -129.1128     -1.025942 
 50            360          -2.915406     -129.4785     -2.915406 
 60            360          -5.445514     -129.8266     -5.445514 
 70            360          -9.031043     -130.1137     -9.031043 
 80            360          -15.10781     -130.3028     -15.10781 
 90            360          -142.4101     -130.3688     -130.1055 
 100           360          -15.10782     -130.3028     -15.10782 
 110           360          -9.031043     -130.1137     -9.031043 
 120           360          -5.445513     -129.8266     -5.445513 
 130           360          -2.915406     -129.4785     -2.915406 
 140           360          -1.025942     -129.1128     -1.025942 
 150           360           .3789563     -128.7734      .3789563 
 160           360           1.36173      -128.4997      1.36173 
 170           360           1.946265     -128.3225      1.946265 
 180           360           2.140529     -128.2612      2.140529 
