                   ****************************************
                     MINI-NUMERICAL ELECTROMAGNETICS CODE
                                   MININEC
                   ****************************************

FREQUENCY (MHZ): 7
    WAVE LENGTH =  42.82857  METERS

ENVIRONMENT (+1 FOR FREE SPACE, -1 FOR GROUND PLANE): +1

NO. OF WIRES: 1

WIRE NO. 1
            COORDINATES                                 END         NO. OF
   X             Y             Z          RADIUS     CONNECTION     SEGMENTS
 0             0             0                          0
 21.41429      0             0             .001         0             10

                  **** ANTENNA GEOMETRY ****

WIRE NO.  1  COORDINATES                                CONNECTION PULSE
X             Y             Z             RADIUS        END1 END2  NO.
 2.141429      0             0             .001          0    1   1
 4.282857      0             0             .001          1    1   2
 6.424286      0             0             .001          1    1   3
 8.565714      0             0             .001          1    1   4
 10.70714      0             0             .001          1    1   5
 12.84857      0             0             .001          1    1   6
 14.99         0             0             .001          1    1   7
 17.13143      0             0             .001          1    1   8
 19.27286      0             0             .001          1    0   9

NO. OF SOURCES :  1
PULSE NO., VOLTAGE MAGNITUDE, PHASE (DEGREES):  5 , 1 , 0

********************    SOURCE DATA     ********************
PULSE  5      VOLTAGE = ( 1 , 0 J)
              CURRENT = ( 9.985326E-03 , -5.519392E-03 J)
              IMPEDANCE = (  76.70964 ,  42.40129 J)
              POWER =  4.992663E-03  WATTS

********************    CURRENT DATA    ********************

WIRE NO.  1 :
PULSE         REAL          IMAGINARY     MAGNITUDE     PHASE
 NO.          (AMPS)        (AMPS)        (AMPS)        (DEGREES)
E              0             0             0             0
 1             3.235353E-03 -2.068385E-03  3.840017E-03 -32.59111 
 2             5.992878E-03 -3.740461E-03  7.064393E-03 -31.9704  
 3             8.144093E-03 -4.938852E-03  9.524628E-03 -31.23404 
 4             9.514598E-03 -5.559339E-03  1.101970E-02 -30.29757 
 5             9.985326E-03 -5.519392E-03  1.140923E-02 -28.93164 
 6             9.514598E-03 -5.559339E-03  1.101970E-02 -30.29757 
 7             8.144093E-03 -4.938852E-03  9.524628E-03 -31.23404 
 8             5.992878E-03 -3.740461E-03  7.064393E-03 -31.9704  
 9             3.235353E-03 -2.068385E-03  3.840017E-03 -32.59111 
E              0             0             0             0

********************     FAR FIELD      ********************

ZENITH ANGLE : INITIAL,INCREMENT,NUMBER:  0 , 10 , 19
AZIMUTH ANGLE: INITIAL,INCREMENT,NUMBER:  0 , 10 , 37

********************    PATTERN DATA    ********************
ZENITH        AZIMUTH       VERTICAL      HORIZONTAL    TOTAL
 ANGLE         ANGLE        PATTERN (DB)  PATTERN (DB)  PATTERN (DB)
 0             0             2.136435     -999           2.136435
 10            0             1.942825     -999           1.942825
 20            0             1.360198     -999           1.360198
 30            0             .380418      -999           .380418 
 40            0            -1.020683     -999          -1.020683
 50            0            -2.90594      -999          -2.90594 
 60            0            -5.43193      -999          -5.43193 
 70            0            -9.013965     -999          -9.013965
 80            0            -15.08835     -999          -15.08835
 90            0            -999          -999          -999     
 100           0            -15.08835     -999          -15.08835
 110           0            -9.013965     -999          -9.013965
 120           0            -5.43193      -999          -5.43193 
 130           0            -2.90594      -999          -2.90594 
 140           0            -1.020683     -999          -1.020683
 150           0             .380418      -999           .380418 
 160           0             1.360198     -999           1.360198
 170           0             1.942825     -999           1.942825
 180           0             2.136435     -999           2.136435
 0             10            2.003464     -13.07016      2.136435
 10            10            1.811684     -13.12897      1.948725
 20            10            1.23437      -13.29897      1.384655
 30            10            .262855      -13.56138      .439259 
 40            10           -1.127893     -13.8866      -.903683 
 50            10           -3.001857     -14.23683     -2.686766
 60            10           -5.516963     -14.56999     -5.007891
 70            10           -9.08992      -14.84458     -8.066313
 80            10           -15.15827     -15.0253      -12.08098
 90            10           -999          -15.08835     -15.08835
 100           10           -15.15827     -15.0253      -12.08098
 110           10           -9.08992      -14.84458     -8.066313
 120           10           -5.516963     -14.56999     -5.007891
 130           10           -3.001857     -14.23683     -2.686766
 140           10           -1.127893     -13.8866      -.903683 
 150           10            .262855      -13.56138      .439259 
 160           10            1.23437      -13.29897      1.384655
 170           10            1.811684     -13.12897      1.948725
 180           10            2.003464     -13.07016      2.136435
 0             20            1.596151     -7.182531      2.136435
 10            20            1.409641     -7.236071      1.965691
 20            20            .847615      -7.390784      1.454683
 30            20           -.10014       -7.629435      .606268 
 40            20           -1.461159     -7.924921     -.577147 
 50            20           -3.302751     -8.242784     -2.094958
 60            20           -5.786707     -8.54479      -3.940085
 70            20           -9.333722     -8.793438     -6.044883
 80            20           -15.38486     -8.956949     -8.066313
 90            20           -999          -9.013965     -9.013965
 100           20           -15.38486     -8.956949     -8.066313
 110           20           -9.333722     -8.793438     -6.044883
 120           20           -5.786707     -8.54479      -3.940085
 130           20           -3.302751     -8.242784     -2.094958
 140           20           -1.461159     -7.924921     -.577147 
 150           20           -.10014       -7.629435      .606268 
 160           20            .847615      -7.390784      1.454683
 170           20            1.409641     -7.236071      1.965691
 180           20            1.596151     -7.182531      2.136435
 0             30            .887047      -3.884165      2.136435
 10            30            .708609      -3.929633      1.991623
 20            30            .169979      -4.06095       1.560868
 30            30           -.741476      -4.263301      .855532 
 40            30           -2.05719      -4.513482     -.103648 
 50            30           -3.849589     -4.782152     -1.280587
 60            30           -6.286355     -5.036967     -2.606587
 70            30           -9.794177     -5.246424     -3.940085
 80            30           -15.81938     -5.383992     -5.007891
 90            30           -999          -5.43193      -5.43193 
 100           30           -15.81938     -5.383992     -5.007891
 110           30           -9.794177     -5.246424     -3.940085
 120           30           -6.286355     -5.036967     -2.606587
 130           30           -3.849589     -4.782152     -1.280587
 140           30           -2.05719      -4.513482     -.103648 
 150           30           -.741476      -4.263301      .855532 
 160           30            .169979      -4.06095       1.560868
 170           30            .708609      -3.929633      1.991623
 180           30            .887047      -3.884165      2.136435
 0             40           -.178486      -1.702215      2.136435
 10            40           -.347026      -1.737785      2.023329
 20            40           -.857         -1.840446      1.689355
 30            40           -1.724098     -1.99844       1.151197
 40            40           -2.984629     -2.193437      .439259 
 50            40           -4.717337     -2.402417     -.397129 
 60            40           -7.097072     -2.600202     -1.280587
 70            40           -10.5577      -2.762468     -2.094958
 80            40           -16.55175     -2.868887     -2.686766
 90            40           -999          -2.90594      -2.90594 
 100           40           -16.55175     -2.868887     -2.686766
 110           40           -10.5577      -2.762468     -2.094958
 120           40           -7.097072     -2.600202     -1.280587
 130           40           -4.717337     -2.402417     -.397129 
 140           40           -2.984629     -2.193437      .439259 
 150           40           -1.724098     -1.99844       1.151197
 160           40           -.857         -1.840446      1.689355
 170           40           -.347026      -1.737785      2.023329
 180           40           -.178486      -1.702215      2.136435
 0             50           -1.702215     -.178486       2.136435
 10            50           -1.860225     -.203525       2.056948
 20            50           -2.339757     -.275744       1.82403 
 30            50           -3.159855     -.386738       1.454683
 40            50           -4.362127     -.523477       .978485 
 50            50           -6.032087     -.669708       .439259 
 60            50           -8.352132     -.807803      -.103648 
 70            50           -11.76357     -.920876      -.577147 
 80            50           -17.72525     -.994922      -.903683 
 90            50           -999          -1.020683     -1.020683
 100           50           -17.72525     -.994922      -.903683 
 110           50           -11.76357     -.920876      -.577147 
 120           50           -8.352132     -.807803      -.103648 
 130           50           -6.032087     -.669708       .439259 
 140           50           -4.362127     -.523477       .978485 
 150           50           -3.159855     -.386738       1.454683
 160           50           -2.339757     -.275744       1.82403 
 170           50           -1.860225     -.203525       2.056948
 180           50           -1.702215     -.178486       2.136435
 0             60           -3.884165      .887047       2.136435
 10            60           -4.032284      .871899       2.088424
 20            60           -4.483258      .828239       1.948725
 30            60           -5.259381      .761219       1.730319
 40            60           -6.407338      .678795       1.454683
 50            60           -8.01904       .590823       1.151197
 60            60           -10.2839       .507911       .855532 
 70            60           -13.65004      .440144       .606268 
 80            60           -19.58198      .395825       .439259 
 90            60           -999           .380418       .380418 
 100           60           -19.58198      .395825       .439259 
 110           60           -13.65004      .440144       .606268 
 120           60           -10.2839       .507911       .855532 
 130           60           -8.01904       .590823       1.151197
 140           60           -6.407338      .678795       1.454683
 150           60           -5.259381      .761219       1.730319
 160           60           -4.483258      .828239       1.948725
 170           60           -4.032284      .871899       2.088424
 180           60           -3.884165      .887047       2.136435
 0             70           -7.182531      1.596151      2.136435
 10            70           -7.322589      1.589064      2.114002
 20            70           -7.750318      1.568649      2.049094
 30            70           -8.490728      1.537342      1.948725
 40            70           -9.59471       1.498893      1.82403 
 50            70           -11.15941      1.457921      1.689355
 60            70           -13.37992      1.419366      1.560868
 70            70           -16.70975      1.387899      1.454683
 80            70           -22.61794      1.367341      1.384655
 90            70           -999           1.360198      1.360198
 100           70           -22.61794      1.367341      1.384655
 110           70           -16.70975      1.387899      1.454683
 120           70           -13.37992      1.419366      1.560868
 130           70           -11.15941      1.457921      1.689355
 140           70           -9.59471       1.498893      1.82403 
 150           70           -8.490728      1.537342      1.948725
 160           70           -7.750318      1.568649      2.049094
 170           70           -7.322589      1.589064      2.114002
 180           70           -7.182531      1.596151      2.136435
 0             80           -13.07016      2.003464      2.136435
 10            80           -13.20496      2.001637      2.130658
 20            80           -13.61753      1.996377      2.114002
 30            80           -14.3347       1.988316      2.088424
 40            80           -15.41012      1.978425      2.056948
 50            80           -16.94438      1.967895      2.023329
 60            80           -19.13623      1.957996      1.991623
 70            80           -22.44267      1.949925      1.965691
 80            80           -28.33556      1.944655      1.948725
 90            80           -999           1.942825      1.942825
 100           80           -28.33556      1.944655      1.948725
 110           80           -22.44267      1.949925      1.965691
 120           80           -19.13623      1.957996      1.991623
 130           80           -16.94438      1.967895      2.023329
 140           80           -15.41012      1.978425      2.056948
 150           80           -14.3347       1.988316      2.088424
 160           80           -13.61753      1.996377      2.114002
 170           80           -13.20496      2.001637      2.130658
 180           80           -13.07016      2.003464      2.136435
 0             90           -999           2.136435      2.136435
 10            90           -999           2.136435      2.136435
 20            90           -999           2.136435      2.136435
 30            90           -999           2.136435      2.136435
 40            90           -999           2.136435      2.136435
 50            90           -999           2.136435      2.136435
 60            90           -999           2.136435      2.136435
 70            90           -999           2.136435      2.136435
 80            90           -999           2.136435      2.136435
 90            90           -999           2.136435      2.136435
 100           90           -999           2.136435      2.136435
 110           90           -999           2.136435      2.136435
 120           90           -999           2.136435      2.136435
 130           90           -999           2.136435      2.136435
 140           90           -999           2.136435      2.136435
 150           90           -999           2.136435      2.136435
 160           90           -999           2.136435      2.136435
 170           90           -999           2.136435      2.136435
 180           90           -999           2.136435      2.136435
 0             100          -13.07016      2.003464      2.136435
 10            100          -13.20496      2.001637      2.130658
 20            100          -13.61753      1.996377      2.114002
 30            100          -14.3347       1.988316      2.088424
 40            100          -15.41012      1.978425      2.056948
 50            100          -16.94438      1.967895      2.023329
 60            100          -19.13623      1.957996      1.991623
 70            100          -22.44267      1.949925      1.965691
 80            100          -28.33556      1.944655      1.948725
 90            100          -999           1.942825      1.942825
 100           100          -28.33556      1.944655      1.948725
 110           100          -22.44267      1.949925      1.965691
 120           100          -19.13623      1.957996      1.991623
 130           100          -16.94438      1.967895      2.023329
 140           100          -15.41012      1.978425      2.056948
 150           100          -14.3347       1.988316      2.088424
 160           100          -13.61753      1.996377      2.114002
 170           100          -13.20496      2.001637      2.130658
 180           100          -13.07016      2.003464      2.136435
 0             110          -7.182531      1.596151      2.136435
 10            110          -7.322589      1.589064      2.114002
 20            110          -7.750318      1.568649      2.049094
 30            110          -8.490728      1.537342      1.948725
 40            110          -9.59471       1.498893      1.82403 
 50            110          -11.15941      1.457921      1.689355
 60            110          -13.37992      1.419366      1.560868
 70            110          -16.70975      1.387899      1.454683
 80            110          -22.61794      1.367341      1.384655
 90            110          -999           1.360198      1.360198
 100           110          -22.61794      1.367341      1.384655
 110           110          -16.70975      1.387899      1.454683
 120           110          -13.37992      1.419366      1.560868
 130           110          -11.15941      1.457921      1.689355
 140           110          -9.59471       1.498893      1.82403 
 150           110          -8.490728      1.537342      1.948725
 160           110          -7.750318      1.568649      2.049094
 170           110          -7.322589      1.589064      2.114002
 180           110          -7.182531      1.596151      2.136435
 0             120          -3.884165      .887047       2.136435
 10            120          -4.032284      .871899       2.088424
 20            120          -4.483258      .828239       1.948725
 30            120          -5.259381      .761219       1.730319
 40            120          -6.407338      .678795       1.454683
 50            120          -8.01904       .590823       1.151197
 60            120          -10.2839       .507911       .855532 
 70            120          -13.65004      .440144       .606268 
 80            120          -19.58198      .395825       .439259 
 90            120          -999           .380418       .380418 
 100           120          -19.58198      .395825       .439259 
 110           120          -13.65004      .440144       .606268 
 120           120          -10.2839       .507911       .855532 
 130           120          -8.01904       .590823       1.151197
 140           120          -6.407338      .678795       1.454683
 150           120          -5.259381      .761219       1.730319
 160           120          -4.483258      .828239       1.948725
 170           120          -4.032284      .871899       2.088424
 180           120          -3.884165      .887047       2.136435
 0             130          -1.702215     -.178486       2.136435
 10            130          -1.860225     -.203525       2.056948
 20            130          -2.339757     -.275744       1.82403 
 30            130          -3.159855     -.386738       1.454683
 40            130          -4.362127     -.523477       .978485 
 50            130          -6.032087     -.669708       .439259 
 60            130          -8.352132     -.807803      -.103648 
 70            130          -11.76357     -.920876      -.577147 
 80            130          -17.72525     -.994922      -.903683 
 90            130          -999          -1.020683     -1.020683
 100           130          -17.72525     -.994922      -.903683 
 110           130          -11.76357     -.920876      -.577147 
 120           130          -8.352132     -.807803      -.103648 
 130           130          -6.032087     -.669708       .439259 
 140           130          -4.362127     -.523477       .978485 
 150           130          -3.159855     -.386738       1.454683
 160           130          -2.339757     -.275744       1.82403 
 170           130          -1.860225     -.203525       2.056948
 180           130          -1.702215     -.178486       2.136435
 0             140          -.178486      -1.702215      2.136435
 10            140          -.347026      -1.737785      2.023329
 20            140          -.857         -1.840446      1.689355
 30            140          -1.724098     -1.99844       1.151197
 40            140          -2.984629     -2.193437      .439259 
 50            140          -4.717337     -2.402417     -.397129 
 60            140          -7.097072     -2.600202     -1.280587
 70            140          -10.5577      -2.762468     -2.094958
 80            140          -16.55175     -2.868887     -2.686766
 90            140          -999          -2.90594      -2.90594 
 100           140          -16.55175     -2.868887     -2.686766
 110           140          -10.5577      -2.762468     -2.094958
 120           140          -7.097072     -2.600202     -1.280587
 130           140          -4.717337     -2.402417     -.397129 
 140           140          -2.984629     -2.193437      .439259 
 150           140          -1.724098     -1.99844       1.151197
 160           140          -.857         -1.840446      1.689355
 170           140          -.347026      -1.737785      2.023329
 180           140          -.178486      -1.702215      2.136435
 0             150           .887047      -3.884165      2.136435
 10            150           .708609      -3.929633      1.991623
 20            150           .169979      -4.06095       1.560868
 30            150          -.741476      -4.263301      .855532 
 40            150          -2.05719      -4.513482     -.103648 
 50            150          -3.849589     -4.782152     -1.280587
 60            150          -6.286355     -5.036967     -2.606587
 70            150          -9.794177     -5.246424     -3.940085
 80            150          -15.81938     -5.383992     -5.007891
 90            150          -999          -5.43193      -5.43193 
 100           150          -15.81938     -5.383992     -5.007891
 110           150          -9.794177     -5.246424     -3.940085
 120           150          -6.286355     -5.036967     -2.606587
 130           150          -3.849589     -4.782152     -1.280587
 140           150          -2.05719      -4.513482     -.103648 
 150           150          -.741476      -4.263301      .855532 
 160           150           .169979      -4.06095       1.560868
 170           150           .708609      -3.929633      1.991623
 180           150           .887047      -3.884165      2.136435
 0             160           1.596151     -7.182531      2.136435
 10            160           1.409641     -7.236071      1.965691
 20            160           .847615      -7.390784      1.454683
 30            160          -.10014       -7.629435      .606268 
 40            160          -1.461159     -7.924921     -.577147 
 50            160          -3.302751     -8.242784     -2.094958
 60            160          -5.786707     -8.54479      -3.940085
 70            160          -9.333722     -8.793438     -6.044883
 80            160          -15.38486     -8.956949     -8.066313
 90            160          -999          -9.013965     -9.013965
 100           160          -15.38486     -8.956949     -8.066313
 110           160          -9.333722     -8.793438     -6.044883
 120           160          -5.786707     -8.54479      -3.940085
 130           160          -3.302751     -8.242784     -2.094958
 140           160          -1.461159     -7.924921     -.577147 
 150           160          -.10014       -7.629435      .606268 
 160           160           .847615      -7.390784      1.454683
 170           160           1.409641     -7.236071      1.965691
 180           160           1.596151     -7.182531      2.136435
 0             170           2.003464     -13.07016      2.136435
 10            170           1.811684     -13.12897      1.948725
 20            170           1.23437      -13.29897      1.384655
 30            170           .262855      -13.56138      .439259 
 40            170          -1.127893     -13.8866      -.903683 
 50            170          -3.001857     -14.23683     -2.686766
 60            170          -5.516963     -14.56999     -5.007891
 70            170          -9.08992      -14.84458     -8.066313
 80            170          -15.15827     -15.0253      -12.08098
 90            170          -999          -15.08835     -15.08835
 100           170          -15.15827     -15.0253      -12.08098
 110           170          -9.08992      -14.84458     -8.066313
 120           170          -5.516963     -14.56999     -5.007891
 130           170          -3.001857     -14.23683     -2.686766
 140           170          -1.127893     -13.8866      -.903683 
 150           170           .262855      -13.56138      .439259 
 160           170           1.23437      -13.29897      1.384655
 170           170           1.811684     -13.12897      1.948725
 180           170           2.003464     -13.07016      2.136435
 0             180           2.136435     -999           2.136435
 10            180           1.942825     -999           1.942825
 20            180           1.360198     -999           1.360198
 30            180           .380418      -999           .380418 
 40            180          -1.020683     -999          -1.020683
 50            180          -2.90594      -999          -2.90594 
 60            180          -5.43193      -999          -5.43193 
 70            180          -9.013965     -999          -9.013965
 80            180          -15.08835     -999          -15.08835
 90            180          -999          -999          -999     
 100           180          -15.08835     -999          -15.08835
 110           180          -9.013965     -999          -9.013965
 120           180          -5.43193      -999          -5.43193 
 130           180          -2.90594      -999          -2.90594 
 140           180          -1.020683     -999          -1.020683
 150           180           .380418      -999           .380418 
 160           180           1.360198     -999           1.360198
 170           180           1.942825     -999           1.942825
 180           180           2.136435     -999           2.136435
 0             190           2.003464     -13.07016      2.136435
 10            190           1.811684     -13.12897      1.948725
 20            190           1.23437      -13.29897      1.384655
 30            190           .262855      -13.56138      .439259 
 40            190          -1.127893     -13.8866      -.903683 
 50            190          -3.001857     -14.23683     -2.686766
 60            190          -5.516963     -14.56999     -5.007891
 70            190          -9.08992      -14.84458     -8.066313
 80            190          -15.15827     -15.0253      -12.08098
 90            190          -999          -15.08835     -15.08835
 100           190          -15.15827     -15.0253      -12.08098
 110           190          -9.08992      -14.84458     -8.066313
 120           190          -5.516963     -14.56999     -5.007891
 130           190          -3.001857     -14.23683     -2.686766
 140           190          -1.127893     -13.8866      -.903683 
 150           190           .262855      -13.56138      .439259 
 160           190           1.23437      -13.29897      1.384655
 170           190           1.811684     -13.12897      1.948725
 180           190           2.003464     -13.07016      2.136435
 0             200           1.596151     -7.182531      2.136435
 10            200           1.409641     -7.236071      1.965691
 20            200           .847615      -7.390784      1.454683
 30            200          -.10014       -7.629435      .606268 
 40            200          -1.461159     -7.924921     -.577147 
 50            200          -3.302751     -8.242784     -2.094958
 60            200          -5.786707     -8.54479      -3.940085
 70            200          -9.333722     -8.793438     -6.044883
 80            200          -15.38486     -8.956949     -8.066313
 90            200          -999          -9.013965     -9.013965
 100           200          -15.38486     -8.956949     -8.066313
 110           200          -9.333722     -8.793438     -6.044883
 120           200          -5.786707     -8.54479      -3.940085
 130           200          -3.302751     -8.242784     -2.094958
 140           200          -1.461159     -7.924921     -.577147 
 150           200          -.10014       -7.629435      .606268 
 160           200           .847615      -7.390784      1.454683
 170           200           1.409641     -7.236071      1.965691
 180           200           1.596151     -7.182531      2.136435
 0             210           .887047      -3.884165      2.136435
 10            210           .708609      -3.929633      1.991623
 20            210           .169979      -4.06095       1.560868
 30            210          -.741476      -4.263301      .855532 
 40            210          -2.05719      -4.513482     -.103648 
 50            210          -3.849589     -4.782152     -1.280587
 60            210          -6.286355     -5.036967     -2.606587
 70            210          -9.794177     -5.246424     -3.940085
 80            210          -15.81938     -5.383992     -5.007891
 90            210          -999          -5.43193      -5.43193 
 100           210          -15.81938     -5.383992     -5.007891
 110           210          -9.794177     -5.246424     -3.940085
 120           210          -6.286355     -5.036967     -2.606587
 130           210          -3.849589     -4.782152     -1.280587
 140           210          -2.05719      -4.513482     -.103648 
 150           210          -.741476      -4.263301      .855532 
 160           210           .169979      -4.06095       1.560868
 170           210           .708609      -3.929633      1.991623
 180           210           .887047      -3.884165      2.136435
 0             220          -.178486      -1.702215      2.136435
 10            220          -.347026      -1.737785      2.023329
 20            220          -.857         -1.840446      1.689355
 30            220          -1.724098     -1.99844       1.151197
 40            220          -2.984629     -2.193437      .439259 
 50            220          -4.717337     -2.402417     -.397129 
 60            220          -7.097072     -2.600202     -1.280587
 70            220          -10.5577      -2.762468     -2.094958
 80            220          -16.55175     -2.868887     -2.686766
 90            220          -999          -2.90594      -2.90594 
 100           220          -16.55175     -2.868887     -2.686766
 110           220          -10.5577      -2.762468     -2.094958
 120           220          -7.097072     -2.600202     -1.280587
 130           220          -4.717337     -2.402417     -.397129 
 140           220          -2.984629     -2.193437      .439259 
 150           220          -1.724098     -1.99844       1.151197
 160           220          -.857         -1.840446      1.689355
 170           220          -.347026      -1.737785      2.023329
 180           220          -.178486      -1.702215      2.136435
 0             230          -1.702215     -.178486       2.136435
 10            230          -1.860225     -.203525       2.056948
 20            230          -2.339757     -.275744       1.82403 
 30            230          -3.159855     -.386738       1.454683
 40            230          -4.362127     -.523477       .978485 
 50            230          -6.032087     -.669708       .439259 
 60            230          -8.352132     -.807803      -.103648 
 70            230          -11.76357     -.920876      -.577147 
 80            230          -17.72525     -.994922      -.903683 
 90            230          -999          -1.020683     -1.020683
 100           230          -17.72525     -.994922      -.903683 
 110           230          -11.76357     -.920876      -.577147 
 120           230          -8.352132     -.807803      -.103648 
 130           230          -6.032087     -.669708       .439259 
 140           230          -4.362127     -.523477       .978485 
 150           230          -3.159855     -.386738       1.454683
 160           230          -2.339757     -.275744       1.82403 
 170           230          -1.860225     -.203525       2.056948
 180           230          -1.702215     -.178486       2.136435
 0             240          -3.884165      .887047       2.136435
 10            240          -4.032284      .871899       2.088424
 20            240          -4.483258      .828239       1.948725
 30            240          -5.259381      .761219       1.730319
 40            240          -6.407338      .678795       1.454683
 50            240          -8.01904       .590823       1.151197
 60            240          -10.2839       .507911       .855532 
 70            240          -13.65004      .440144       .606268 
 80            240          -19.58198      .395825       .439259 
 90            240          -999           .380418       .380418 
 100           240          -19.58198      .395825       .439259 
 110           240          -13.65004      .440144       .606268 
 120           240          -10.2839       .507911       .855532 
 130           240          -8.01904       .590823       1.151197
 140           240          -6.407338      .678795       1.454683
 150           240          -5.259381      .761219       1.730319
 160           240          -4.483258      .828239       1.948725
 170           240          -4.032284      .871899       2.088424
 180           240          -3.884165      .887047       2.136435
 0             250          -7.182531      1.596151      2.136435
 10            250          -7.322589      1.589064      2.114002
 20            250          -7.750318      1.568649      2.049094
 30            250          -8.490728      1.537342      1.948725
 40            250          -9.59471       1.498893      1.82403 
 50            250          -11.15941      1.457921      1.689355
 60            250          -13.37992      1.419366      1.560868
 70            250          -16.70975      1.387899      1.454683
 80            250          -22.61794      1.367341      1.384655
 90            250          -999           1.360198      1.360198
 100           250          -22.61794      1.367341      1.384655
 110           250          -16.70975      1.387899      1.454683
 120           250          -13.37992      1.419366      1.560868
 130           250          -11.15941      1.457921      1.689355
 140           250          -9.59471       1.498893      1.82403 
 150           250          -8.490728      1.537342      1.948725
 160           250          -7.750318      1.568649      2.049094
 170           250          -7.322589      1.589064      2.114002
 180           250          -7.182531      1.596151      2.136435
 0             260          -13.07016      2.003464      2.136435
 10            260          -13.20496      2.001637      2.130658
 20            260          -13.61753      1.996377      2.114002
 30            260          -14.3347       1.988316      2.088424
 40            260          -15.41012      1.978425      2.056948
 50            260          -16.94438      1.967895      2.023329
 60            260          -19.13623      1.957996      1.991623
 70            260          -22.44267      1.949925      1.965691
 80            260          -28.33556      1.944655      1.948725
 90            260          -999           1.942825      1.942825
 100           260          -28.33556      1.944655      1.948725
 110           260          -22.44267      1.949925      1.965691
 120           260          -19.13623      1.957996      1.991623
 130           260          -16.94438      1.967895      2.023329
 140           260          -15.41012      1.978425      2.056948
 150           260          -14.3347       1.988316      2.088424
 160           260          -13.61753      1.996377      2.114002
 170           260          -13.20496      2.001637      2.130658
 180           260          -13.07016      2.003464      2.136435
 0             270          -999           2.136435      2.136435
 10            270          -999           2.136435      2.136435
 20            270          -999           2.136435      2.136435
 30            270          -999           2.136435      2.136435
 40            270          -999           2.136435      2.136435
 50            270          -999           2.136435      2.136435
 60            270          -999           2.136435      2.136435
 70            270          -999           2.136435      2.136435
 80            270          -999           2.136435      2.136435
 90            270          -999           2.136435      2.136435
 100           270          -999           2.136435      2.136435
 110           270          -999           2.136435      2.136435
 120           270          -999           2.136435      2.136435
 130           270          -999           2.136435      2.136435
 140           270          -999           2.136435      2.136435
 150           270          -999           2.136435      2.136435
 160           270          -999           2.136435      2.136435
 170           270          -999           2.136435      2.136435
 180           270          -999           2.136435      2.136435
 0             280          -13.07016      2.003464      2.136435
 10            280          -13.20496      2.001637      2.130658
 20            280          -13.61753      1.996377      2.114002
 30            280          -14.3347       1.988316      2.088424
 40            280          -15.41012      1.978425      2.056948
 50            280          -16.94438      1.967895      2.023329
 60            280          -19.13623      1.957996      1.991623
 70            280          -22.44267      1.949925      1.965691
 80            280          -28.33556      1.944655      1.948725
 90            280          -999           1.942825      1.942825
 100           280          -28.33556      1.944655      1.948725
 110           280          -22.44267      1.949925      1.965691
 120           280          -19.13623      1.957996      1.991623
 130           280          -16.94438      1.967895      2.023329
 140           280          -15.41012      1.978425      2.056948
 150           280          -14.3347       1.988316      2.088424
 160           280          -13.61753      1.996377      2.114002
 170           280          -13.20496      2.001637      2.130658
 180           280          -13.07016      2.003464      2.136435
 0             290          -7.182531      1.596151      2.136435
 10            290          -7.322589      1.589064      2.114002
 20            290          -7.750318      1.568649      2.049094
 30            290          -8.490728      1.537342      1.948725
 40            290          -9.59471       1.498893      1.82403 
 50            290          -11.15941      1.457921      1.689355
 60            290          -13.37992      1.419366      1.560868
 70            290          -16.70975      1.387899      1.454683
 80            290          -22.61794      1.367341      1.384655
 90            290          -999           1.360198      1.360198
 100           290          -22.61794      1.367341      1.384655
 110           290          -16.70975      1.387899      1.454683
 120           290          -13.37992      1.419366      1.560868
 130           290          -11.15941      1.457921      1.689355
 140           290          -9.59471       1.498893      1.82403 
 150           290          -8.490728      1.537342      1.948725
 160           290          -7.750318      1.568649      2.049094
 170           290          -7.322589      1.589064      2.114002
 180           290          -7.182531      1.596151      2.136435
 0             300          -3.884165      .887047       2.136435
 10            300          -4.032284      .871899       2.088424
 20            300          -4.483258      .828239       1.948725
 30            300          -5.259381      .761219       1.730319
 40            300          -6.407338      .678795       1.454683
 50            300          -8.01904       .590823       1.151197
 60            300          -10.2839       .507911       .855532 
 70            300          -13.65004      .440144       .606268 
 80            300          -19.58198      .395825       .439259 
 90            300          -999           .380418       .380418 
 100           300          -19.58198      .395825       .439259 
 110           300          -13.65004      .440144       .606268 
 120           300          -10.2839       .507911       .855532 
 130           300          -8.01904       .590823       1.151197
 140           300          -6.407338      .678795       1.454683
 150           300          -5.259381      .761219       1.730319
 160           300          -4.483258      .828239       1.948725
 170           300          -4.032284      .871899       2.088424
 180           300          -3.884165      .887047       2.136435
 0             310          -1.702215     -.178486       2.136435
 10            310          -1.860225     -.203525       2.056948
 20            310          -2.339757     -.275744       1.82403 
 30            310          -3.159855     -.386738       1.454683
 40            310          -4.362127     -.523477       .978485 
 50            310          -6.032087     -.669708       .439259 
 60            310          -8.352132     -.807803      -.103648 
 70            310          -11.76357     -.920876      -.577147 
 80            310          -17.72525     -.994922      -.903683 
 90            310          -999          -1.020683     -1.020683
 100           310          -17.72525     -.994922      -.903683 
 110           310          -11.76357     -.920876      -.577147 
 120           310          -8.352132     -.807803      -.103648 
 130           310          -6.032087     -.669708       .439259 
 140           310          -4.362127     -.523477       .978485 
 150           310          -3.159855     -.386738       1.454683
 160           310          -2.339757     -.275744       1.82403 
 170           310          -1.860225     -.203525       2.056948
 180           310          -1.702215     -.178486       2.136435
 0             320          -.178486      -1.702215      2.136435
 10            320          -.347026      -1.737785      2.023329
 20            320          -.857         -1.840446      1.689355
 30            320          -1.724098     -1.99844       1.151197
 40            320          -2.984629     -2.193437      .439259 
 50            320          -4.717337     -2.402417     -.397129 
 60            320          -7.097072     -2.600202     -1.280587
 70            320          -10.5577      -2.762468     -2.094958
 80            320          -16.55175     -2.868887     -2.686766
 90            320          -999          -2.90594      -2.90594 
 100           320          -16.55175     -2.868887     -2.686766
 110           320          -10.5577      -2.762468     -2.094958
 120           320          -7.097072     -2.600202     -1.280587
 130           320          -4.717337     -2.402417     -.397129 
 140           320          -2.984629     -2.193437      .439259 
 150           320          -1.724098     -1.99844       1.151197
 160           320          -.857         -1.840446      1.689355
 170           320          -.347026      -1.737785      2.023329
 180           320          -.178486      -1.702215      2.136435
 0             330           .887047      -3.884165      2.136435
 10            330           .708609      -3.929633      1.991623
 20            330           .169979      -4.06095       1.560868
 30            330          -.741476      -4.263301      .855532 
 40            330          -2.05719      -4.513482     -.103648 
 50            330          -3.849589     -4.782152     -1.280587
 60            330          -6.286355     -5.036967     -2.606587
 70            330          -9.794177     -5.246424     -3.940085
 80            330          -15.81938     -5.383992     -5.007891
 90            330          -999          -5.43193      -5.43193 
 100           330          -15.81938     -5.383992     -5.007891
 110           330          -9.794177     -5.246424     -3.940085
 120           330          -6.286355     -5.036967     -2.606587
 130           330          -3.849589     -4.782152     -1.280587
 140           330          -2.05719      -4.513482     -.103648 
 150           330          -.741476      -4.263301      .855532 
 160           330           .169979      -4.06095       1.560868
 170           330           .708609      -3.929633      1.991623
 180           330           .887047      -3.884165      2.136435
 0             340           1.596151     -7.182531      2.136435
 10            340           1.409641     -7.236071      1.965691
 20            340           .847615      -7.390784      1.454683
 30            340          -.10014       -7.629435      .606268 
 40            340          -1.461159     -7.924921     -.577147 
 50            340          -3.302751     -8.242784     -2.094958
 60            340          -5.786707     -8.54479      -3.940085
 70            340          -9.333722     -8.793438     -6.044883
 80            340          -15.38486     -8.956949     -8.066313
 90            340          -999          -9.013965     -9.013965
 100           340          -15.38486     -8.956949     -8.066313
 110           340          -9.333722     -8.793438     -6.044883
 120           340          -5.786707     -8.54479      -3.940085
 130           340          -3.302751     -8.242784     -2.094958
 140           340          -1.461159     -7.924921     -.577147 
 150           340          -.10014       -7.629435      .606268 
 160           340           .847615      -7.390784      1.454683
 170           340           1.409641     -7.236071      1.965691
 180           340           1.596151     -7.182531      2.136435
 0             350           2.003464     -13.07016      2.136435
 10            350           1.811684     -13.12897      1.948725
 20            350           1.23437      -13.29897      1.384655
 30            350           .262855      -13.56138      .439259 
 40            350          -1.127893     -13.8866      -.903683 
 50            350          -3.001857     -14.23683     -2.686766
 60            350          -5.516963     -14.56999     -5.007891
 70            350          -9.08992      -14.84458     -8.066313
 80            350          -15.15827     -15.0253      -12.08098
 90            350          -999          -15.08835     -15.08835
 100           350          -15.15827     -15.0253      -12.08098
 110           350          -9.08992      -14.84458     -8.066313
 120           350          -5.516963     -14.56999     -5.007891
 130           350          -3.001857     -14.23683     -2.686766
 140           350          -1.127893     -13.8866      -.903683 
 150           350           .262855      -13.56138      .439259 
 160           350           1.23437      -13.29897      1.384655
 170           350           1.811684     -13.12897      1.948725
 180           350           2.003464     -13.07016      2.136435
 0             360           2.136435     -999           2.136435
 10            360           1.942825     -999           1.942825
 20            360           1.360198     -999           1.360198
 30            360           .380418      -999           .380418 
 40            360          -1.020683     -999          -1.020683
 50            360          -2.90594      -999          -2.90594 
 60            360          -5.43193      -999          -5.43193 
 70            360          -9.013965     -999          -9.013965
 80            360          -15.08835     -999          -15.08835
 90            360          -999          -999          -999     
 100           360          -15.08835     -999          -15.08835
 110           360          -9.013965     -999          -9.013965
 120           360          -5.43193      -999          -5.43193 
 130           360          -2.90594      -999          -2.90594 
 140           360          -1.020683     -999          -1.020683
 150           360           .380418      -999           .380418 
 160           360           1.360198     -999           1.360198
 170           360           1.942825     -999           1.942825
 180           360           2.136435     -999           2.136435
