                   ****************************************
                     MINI-NUMERICAL ELECTROMAGNETICS CODE
                                   MININEC
                   ****************************************

FREQUENCY (MHZ): 7
    WAVE LENGTH =  42.82857  METERS

ENVIRONMENT (+1 FOR FREE SPACE, -1 FOR GROUND PLANE): +1

NO. OF GEO-OBJECTS: 1

WIRE NO. 1
            COORDINATES                                 END         NO. OF
   X             Y             Z          RADIUS     CONNECTION     SEGMENTS
 0             0             0                          0
 21.41428      0             0             .001         0             10

                  **** ANTENNA GEOMETRY ****

WIRE NO.  1 COORDINATES                                 CONNECTION PULSE
X             Y             Z             RADIUS        END1 END2  NO.
 2.141428      0             0             .001          0    1   1
 4.282857      0             0             .001          1    1   2
 6.424285      0             0             .001          1    1   3
 8.565714      0             0             .001          1    1   4
 10.70714      0             0             .001          1    1   5
 12.84857      0             0             .001          1    1   6
 14.99         0             0             .001          1    1   7
 17.13143      0             0             .001          1    1   8
 19.27286      0             0             .001          1    0   9

NO. OF SOURCES :  1
PULSE NO., VOLTAGE MAGNITUDE, PHASE (DEGREES):  5 , 1 , 0
NUMBER OF LOADS 0

********************    SOURCE DATA     ********************
PULSE  5      VOLTAGE = ( 1 , 0 J)
              CURRENT = ( 9.985325E-03 , -5.519393E-03 J)
              IMPEDANCE = ( 76.70964 ,  42.40129 J)
              POWER =  4.992662E-03  WATTS

********************    CURRENT DATA    ********************

WIRE NO.  1 :
PULSE         REAL          IMAGINARY     MAGNITUDE     PHASE
 NO.          (AMPS)        (AMPS)        (AMPS)        (DEGREES)
E              0             0             0             0
 1             3.235352E-03 -2.068386E-03  3.840016E-03 -32.59111 
 2             5.992877E-03 -3.740462E-03  7.064392E-03 -31.9704  
 3             8.144092E-03 -4.938853E-03  9.524627E-03 -31.23404 
 4             9.514597E-03 -5.559340E-03  1.101970E-02 -30.29757 
 5             9.985325E-03 -5.519393E-03  1.140922E-02 -28.93164 
 6             9.514597E-03 -5.559340E-03  1.101970E-02 -30.29757 
 7             8.144092E-03 -4.938853E-03  9.524627E-03 -31.23404 
 8             5.992877E-03 -3.740462E-03  7.064392E-03 -31.9704  
 9             3.235352E-03 -2.068386E-03  3.840016E-03 -32.59111 
E              0             0             0             0

********************     FAR FIELD      ********************

ZENITH ANGLE : INITIAL,INCREMENT,NUMBER: 0 , 10 , 19
AZIMUTH ANGLE: INITIAL,INCREMENT,NUMBER: 0 , 10 , 37

********************    PATTERN DATA    ********************
ZENITH        AZIMUTH       VERTICAL      HORIZONTAL    TOTAL
 ANGLE         ANGLE        PATTERN (DB)  PATTERN (DB)  PATTERN (DB)
 0             0             2.136488     -999           2.136488
 10            0             1.942878     -999           1.942878
 20            0             1.360251     -999           1.360251
 30            0             .380471      -999           .380471 
 40            0            -1.02063      -999          -1.02063 
 50            0            -2.905887     -999          -2.905887
 60            0            -5.431876     -999          -5.431876
 70            0            -9.013912     -999          -9.013912
 80            0            -15.08829     -999          -15.08829
 90            0            -999          -999          -999     
 100           0            -15.08829     -999          -15.08829
 110           0            -9.013912     -999          -9.013912
 120           0            -5.431876     -999          -5.431876
 130           0            -2.905887     -999          -2.905887
 140           0            -1.02063      -999          -1.02063 
 150           0             .380471      -999           .380471 
 160           0             1.360251     -999           1.360251
 170           0             1.942878     -999           1.942878
 180           0             2.136488     -999           2.136488
 0             10            2.003517     -13.07011      2.136488
 10            10            1.811738     -13.12892      1.948778
 20            10            1.234424     -13.29892      1.384708
 30            10            .262908      -13.56133      .439313 
 40            10           -1.127839     -13.88654     -.903629 
 50            10           -3.001804     -14.23678     -2.686712
 60            10           -5.51691      -14.56993     -5.007837
 70            10           -9.089867     -14.84452     -8.066259
 80            10           -15.15822     -15.02525     -12.08092
 90            10           -999          -15.08829     -15.08829
 100           10           -15.15822     -15.02525     -12.08092
 110           10           -9.089867     -14.84452     -8.066259
 120           10           -5.51691      -14.56993     -5.007837
 130           10           -3.001804     -14.23678     -2.686712
 140           10           -1.127839     -13.88654     -.903629 
 150           10            .262908      -13.56133      .439313 
 160           10            1.234424     -13.29892      1.384708
 170           10            1.811738     -13.12892      1.948778
 180           10            2.003517     -13.07011      2.136488
 0             20            1.596204     -7.182478      2.136488
 10            20            1.409694     -7.236017      1.965745
 20            20            .847668      -7.390731      1.454736
 30            20           -.100087      -7.629382      .606322 
 40            20           -1.461106     -7.924868     -.577094 
 50            20           -3.302698     -8.242731     -2.094904
 60            20           -5.786654     -8.544737     -3.940031
 70            20           -9.333668     -8.793385     -6.04483 
 80            20           -15.38481     -8.956896     -8.066259
 90            20           -999          -9.013912     -9.013912
 100           20           -15.38481     -8.956896     -8.066259
 110           20           -9.333668     -8.793385     -6.04483 
 120           20           -5.786654     -8.544737     -3.940031
 130           20           -3.302698     -8.242731     -2.094904
 140           20           -1.461106     -7.924868     -.577094 
 150           20           -.100087      -7.629382      .606322 
 160           20            .847668      -7.390731      1.454736
 170           20            1.409694     -7.236017      1.965745
 180           20            1.596204     -7.182478      2.136488
 0             30            .887101      -3.884112      2.136488
 10            30            .708662      -3.929579      1.991676
 20            30            .170032      -4.060897      1.560921
 30            30           -.741423      -4.263248      .855586 
 40            30           -2.057137     -4.513429     -.103595 
 50            30           -3.849536     -4.782098     -1.280534
 60            30           -6.286301     -5.036914     -2.606534
 70            30           -9.794124     -5.24637      -3.940031
 80            30           -15.81932     -5.383939     -5.007837
 90            30           -999          -5.431876     -5.431876
 100           30           -15.81932     -5.383939     -5.007837
 110           30           -9.794124     -5.24637      -3.940031
 120           30           -6.286301     -5.036914     -2.606534
 130           30           -3.849536     -4.782098     -1.280534
 140           30           -2.057137     -4.513429     -.103595 
 150           30           -.741423      -4.263248      .855586 
 160           30            .170032      -4.060897      1.560921
 170           30            .708662      -3.929579      1.991676
 180           30            .887101      -3.884112      2.136488
 0             40           -.178433      -1.702162      2.136488
 10            40           -.346973      -1.737731      2.023383
 20            40           -.856947      -1.840392      1.689408
 30            40           -1.724044     -1.998386      1.15125 
 40            40           -2.984575     -2.193384      .439313 
 50            40           -4.717284     -2.402363     -.397076 
 60            40           -7.097019     -2.600148     -1.280534
 70            40           -10.55765     -2.762414     -2.094904
 80            40           -16.5517      -2.868833     -2.686712
 90            40           -999          -2.905887     -2.905887
 100           40           -16.5517      -2.868833     -2.686712
 110           40           -10.55765     -2.762414     -2.094904
 120           40           -7.097019     -2.600148     -1.280534
 130           40           -4.717284     -2.402363     -.397076 
 140           40           -2.984575     -2.193384      .439313 
 150           40           -1.724044     -1.998386      1.15125 
 160           40           -.856947      -1.840392      1.689408
 170           40           -.346973      -1.737731      2.023383
 180           40           -.178433      -1.702162      2.136488
 0             50           -1.702162     -.178433       2.136488
 10            50           -1.860172     -.203472       2.057001
 20            50           -2.339704     -.27569        1.824083
 30            50           -3.159802     -.386685       1.454736
 40            50           -4.362074     -.523424       .978538 
 50            50           -6.032034     -.669655       .439313 
 60            50           -8.352079     -.80775       -.103595 
 70            50           -11.76352     -.920822      -.577094 
 80            50           -17.72519     -.994868      -.903629 
 90            50           -999          -1.02063      -1.02063 
 100           50           -17.72519     -.994868      -.903629 
 110           50           -11.76352     -.920822      -.577094 
 120           50           -8.352079     -.80775       -.103595 
 130           50           -6.032034     -.669655       .439313 
 140           50           -4.362074     -.523424       .978538 
 150           50           -3.159802     -.386685       1.454736
 160           50           -2.339704     -.27569        1.824083
 170           50           -1.860172     -.203472       2.057001
 180           50           -1.702162     -.178433       2.136488
 0             60           -3.884112      .887101       2.136488
 10            60           -4.032231      .871953       2.088477
 20            60           -4.483204      .828292       1.948778
 30            60           -5.259328      .761272       1.730372
 40            60           -6.407285      .678848       1.454736
 50            60           -8.018986      .590876       1.15125 
 60            60           -10.28385      .507964       .855586 
 70            60           -13.64998      .440197       .606322 
 80            60           -19.58193      .395879       .439313 
 90            60           -999           .380471       .380471 
 100           60           -19.58193      .395879       .439313 
 110           60           -13.64998      .440197       .606322 
 120           60           -10.28385      .507964       .855586 
 130           60           -8.018986      .590876       1.15125 
 140           60           -6.407285      .678848       1.454736
 150           60           -5.259328      .761272       1.730372
 160           60           -4.483204      .828292       1.948778
 170           60           -4.032231      .871953       2.088477
 180           60           -3.884112      .887101       2.136488
 0             70           -7.182478      1.596204      2.136488
 10            70           -7.322536      1.589118      2.114055
 20            70           -7.750264      1.568702      2.049147
 30            70           -8.490674      1.537396      1.948778
 40            70           -9.594657      1.498947      1.824083
 50            70           -11.15936      1.457974      1.689408
 60            70           -13.37986      1.41942       1.560921
 70            70           -16.7097       1.387952      1.454736
 80            70           -22.61788      1.367394      1.384708
 90            70           -999           1.360251      1.360251
 100           70           -22.61788      1.367394      1.384708
 110           70           -16.7097       1.387952      1.454736
 120           70           -13.37986      1.41942       1.560921
 130           70           -11.15936      1.457974      1.689408
 140           70           -9.594657      1.498947      1.824083
 150           70           -8.490674      1.537396      1.948778
 160           70           -7.750264      1.568702      2.049147
 170           70           -7.322536      1.589118      2.114055
 180           70           -7.182478      1.596204      2.136488
 0             80           -13.07011      2.003517      2.136488
 10            80           -13.2049       2.001691      2.130711
 20            80           -13.61748      1.99643       2.114055
 30            80           -14.33464      1.988369      2.088477
 40            80           -15.41007      1.978478      2.057001
 50            80           -16.94433      1.967948      2.023383
 60            80           -19.13617      1.95805       1.991676
 70            80           -22.44261      1.949978      1.965745
 80            80           -28.33551      1.944708      1.948778
 90            80           -999           1.942878      1.942878
 100           80           -28.33551      1.944708      1.948778
 110           80           -22.44261      1.949978      1.965745
 120           80           -19.13617      1.95805       1.991676
 130           80           -16.94433      1.967948      2.023383
 140           80           -15.41007      1.978478      2.057001
 150           80           -14.33464      1.988369      2.088477
 160           80           -13.61748      1.99643       2.114055
 170           80           -13.2049       2.001691      2.130711
 180           80           -13.07011      2.003517      2.136488
 0             90           -999           2.136488      2.136488
 10            90           -999           2.136488      2.136488
 20            90           -999           2.136488      2.136488
 30            90           -999           2.136488      2.136488
 40            90           -999           2.136488      2.136488
 50            90           -999           2.136488      2.136488
 60            90           -999           2.136488      2.136488
 70            90           -999           2.136488      2.136488
 80            90           -999           2.136488      2.136488
 90            90           -999           2.136488      2.136488
 100           90           -999           2.136488      2.136488
 110           90           -999           2.136488      2.136488
 120           90           -999           2.136488      2.136488
 130           90           -999           2.136488      2.136488
 140           90           -999           2.136488      2.136488
 150           90           -999           2.136488      2.136488
 160           90           -999           2.136488      2.136488
 170           90           -999           2.136488      2.136488
 180           90           -999           2.136488      2.136488
 0             100          -13.07011      2.003517      2.136488
 10            100          -13.2049       2.001691      2.130711
 20            100          -13.61748      1.99643       2.114055
 30            100          -14.33464      1.988369      2.088477
 40            100          -15.41007      1.978478      2.057001
 50            100          -16.94433      1.967948      2.023383
 60            100          -19.13617      1.95805       1.991676
 70            100          -22.44261      1.949978      1.965745
 80            100          -28.33551      1.944708      1.948778
 90            100          -999           1.942878      1.942878
 100           100          -28.33551      1.944708      1.948778
 110           100          -22.44261      1.949978      1.965745
 120           100          -19.13617      1.95805       1.991676
 130           100          -16.94433      1.967948      2.023383
 140           100          -15.41007      1.978478      2.057001
 150           100          -14.33464      1.988369      2.088477
 160           100          -13.61748      1.99643       2.114055
 170           100          -13.2049       2.001691      2.130711
 180           100          -13.07011      2.003517      2.136488
 0             110          -7.182478      1.596204      2.136488
 10            110          -7.322536      1.589118      2.114055
 20            110          -7.750264      1.568702      2.049147
 30            110          -8.490674      1.537396      1.948778
 40            110          -9.594657      1.498947      1.824083
 50            110          -11.15936      1.457974      1.689408
 60            110          -13.37986      1.41942       1.560921
 70            110          -16.7097       1.387952      1.454736
 80            110          -22.61788      1.367394      1.384708
 90            110          -999           1.360251      1.360251
 100           110          -22.61788      1.367394      1.384708
 110           110          -16.7097       1.387952      1.454736
 120           110          -13.37986      1.41942       1.560921
 130           110          -11.15936      1.457974      1.689408
 140           110          -9.594657      1.498947      1.824083
 150           110          -8.490674      1.537396      1.948778
 160           110          -7.750264      1.568702      2.049147
 170           110          -7.322536      1.589118      2.114055
 180           110          -7.182478      1.596204      2.136488
 0             120          -3.884112      .887101       2.136488
 10            120          -4.032231      .871953       2.088477
 20            120          -4.483204      .828292       1.948778
 30            120          -5.259328      .761272       1.730372
 40            120          -6.407285      .678848       1.454736
 50            120          -8.018986      .590876       1.15125 
 60            120          -10.28385      .507964       .855586 
 70            120          -13.64998      .440197       .606322 
 80            120          -19.58193      .395879       .439313 
 90            120          -999           .380471       .380471 
 100           120          -19.58193      .395879       .439313 
 110           120          -13.64998      .440197       .606322 
 120           120          -10.28385      .507964       .855586 
 130           120          -8.018986      .590876       1.15125 
 140           120          -6.407285      .678848       1.454736
 150           120          -5.259328      .761272       1.730372
 160           120          -4.483204      .828292       1.948778
 170           120          -4.032231      .871953       2.088477
 180           120          -3.884112      .887101       2.136488
 0             130          -1.702162     -.178433       2.136488
 10            130          -1.860172     -.203472       2.057001
 20            130          -2.339704     -.27569        1.824083
 30            130          -3.159802     -.386685       1.454736
 40            130          -4.362074     -.523424       .978538 
 50            130          -6.032034     -.669655       .439313 
 60            130          -8.352079     -.80775       -.103595 
 70            130          -11.76352     -.920822      -.577094 
 80            130          -17.72519     -.994868      -.903629 
 90            130          -999          -1.02063      -1.02063 
 100           130          -17.72519     -.994868      -.903629 
 110           130          -11.76352     -.920822      -.577094 
 120           130          -8.352079     -.80775       -.103595 
 130           130          -6.032034     -.669655       .439313 
 140           130          -4.362074     -.523424       .978538 
 150           130          -3.159802     -.386685       1.454736
 160           130          -2.339704     -.27569        1.824083
 170           130          -1.860172     -.203472       2.057001
 180           130          -1.702162     -.178433       2.136488
 0             140          -.178433      -1.702162      2.136488
 10            140          -.346973      -1.737731      2.023383
 20            140          -.856947      -1.840392      1.689408
 30            140          -1.724044     -1.998386      1.15125 
 40            140          -2.984575     -2.193384      .439313 
 50            140          -4.717284     -2.402363     -.397076 
 60            140          -7.097019     -2.600148     -1.280534
 70            140          -10.55765     -2.762414     -2.094904
 80            140          -16.5517      -2.868833     -2.686712
 90            140          -999          -2.905887     -2.905887
 100           140          -16.5517      -2.868833     -2.686712
 110           140          -10.55765     -2.762414     -2.094904
 120           140          -7.097019     -2.600148     -1.280534
 130           140          -4.717284     -2.402363     -.397076 
 140           140          -2.984575     -2.193384      .439313 
 150           140          -1.724044     -1.998386      1.15125 
 160           140          -.856947      -1.840392      1.689408
 170           140          -.346973      -1.737731      2.023383
 180           140          -.178433      -1.702162      2.136488
 0             150           .887101      -3.884112      2.136488
 10            150           .708662      -3.929579      1.991676
 20            150           .170032      -4.060897      1.560921
 30            150          -.741423      -4.263248      .855586 
 40            150          -2.057137     -4.513429     -.103595 
 50            150          -3.849536     -4.782098     -1.280534
 60            150          -6.286301     -5.036914     -2.606534
 70            150          -9.794124     -5.24637      -3.940031
 80            150          -15.81932     -5.383939     -5.007837
 90            150          -999          -5.431876     -5.431876
 100           150          -15.81932     -5.383939     -5.007837
 110           150          -9.794124     -5.24637      -3.940031
 120           150          -6.286301     -5.036914     -2.606534
 130           150          -3.849536     -4.782098     -1.280534
 140           150          -2.057137     -4.513429     -.103595 
 150           150          -.741423      -4.263248      .855586 
 160           150           .170032      -4.060897      1.560921
 170           150           .708662      -3.929579      1.991676
 180           150           .887101      -3.884112      2.136488
 0             160           1.596204     -7.182478      2.136488
 10            160           1.409694     -7.236017      1.965745
 20            160           .847668      -7.390731      1.454736
 30            160          -.100087      -7.629382      .606322 
 40            160          -1.461106     -7.924868     -.577094 
 50            160          -3.302698     -8.242731     -2.094904
 60            160          -5.786654     -8.544737     -3.940031
 70            160          -9.333668     -8.793385     -6.04483 
 80            160          -15.38481     -8.956896     -8.066259
 90            160          -999          -9.013912     -9.013912
 100           160          -15.38481     -8.956896     -8.066259
 110           160          -9.333668     -8.793385     -6.04483 
 120           160          -5.786654     -8.544737     -3.940031
 130           160          -3.302698     -8.242731     -2.094904
 140           160          -1.461106     -7.924868     -.577094 
 150           160          -.100087      -7.629382      .606322 
 160           160           .847668      -7.390731      1.454736
 170           160           1.409694     -7.236017      1.965745
 180           160           1.596204     -7.182478      2.136488
 0             170           2.003517     -13.07011      2.136488
 10            170           1.811738     -13.12892      1.948778
 20            170           1.234424     -13.29892      1.384708
 30            170           .262908      -13.56133      .439313 
 40            170          -1.127839     -13.88654     -.903629 
 50            170          -3.001804     -14.23678     -2.686712
 60            170          -5.51691      -14.56993     -5.007837
 70            170          -9.089867     -14.84452     -8.066259
 80            170          -15.15822     -15.02525     -12.08092
 90            170          -999          -15.08829     -15.08829
 100           170          -15.15822     -15.02525     -12.08092
 110           170          -9.089867     -14.84452     -8.066259
 120           170          -5.51691      -14.56993     -5.007837
 130           170          -3.001804     -14.23678     -2.686712
 140           170          -1.127839     -13.88654     -.903629 
 150           170           .262908      -13.56133      .439313 
 160           170           1.234424     -13.29892      1.384708
 170           170           1.811738     -13.12892      1.948778
 180           170           2.003517     -13.07011      2.136488
 0             180           2.136488     -999           2.136488
 10            180           1.942878     -999           1.942878
 20            180           1.360251     -999           1.360251
 30            180           .380471      -999           .380471 
 40            180          -1.02063      -999          -1.02063 
 50            180          -2.905887     -999          -2.905887
 60            180          -5.431876     -999          -5.431876
 70            180          -9.013912     -999          -9.013912
 80            180          -15.08829     -999          -15.08829
 90            180          -999          -999          -999     
 100           180          -15.08829     -999          -15.08829
 110           180          -9.013912     -999          -9.013912
 120           180          -5.431876     -999          -5.431876
 130           180          -2.905887     -999          -2.905887
 140           180          -1.02063      -999          -1.02063 
 150           180           .380471      -999           .380471 
 160           180           1.360251     -999           1.360251
 170           180           1.942878     -999           1.942878
 180           180           2.136488     -999           2.136488
 0             190           2.003517     -13.07011      2.136488
 10            190           1.811738     -13.12892      1.948778
 20            190           1.234424     -13.29892      1.384708
 30            190           .262908      -13.56133      .439313 
 40            190          -1.127839     -13.88654     -.903629 
 50            190          -3.001804     -14.23678     -2.686712
 60            190          -5.51691      -14.56993     -5.007837
 70            190          -9.089867     -14.84452     -8.066259
 80            190          -15.15822     -15.02525     -12.08092
 90            190          -999          -15.08829     -15.08829
 100           190          -15.15822     -15.02525     -12.08092
 110           190          -9.089867     -14.84452     -8.066259
 120           190          -5.51691      -14.56993     -5.007837
 130           190          -3.001804     -14.23678     -2.686712
 140           190          -1.127839     -13.88654     -.903629 
 150           190           .262908      -13.56133      .439313 
 160           190           1.234424     -13.29892      1.384708
 170           190           1.811738     -13.12892      1.948778
 180           190           2.003517     -13.07011      2.136488
 0             200           1.596204     -7.182478      2.136488
 10            200           1.409694     -7.236017      1.965745
 20            200           .847668      -7.390731      1.454736
 30            200          -.100087      -7.629382      .606322 
 40            200          -1.461106     -7.924868     -.577094 
 50            200          -3.302698     -8.242731     -2.094904
 60            200          -5.786654     -8.544737     -3.940031
 70            200          -9.333668     -8.793385     -6.04483 
 80            200          -15.38481     -8.956896     -8.066259
 90            200          -999          -9.013912     -9.013912
 100           200          -15.38481     -8.956896     -8.066259
 110           200          -9.333668     -8.793385     -6.04483 
 120           200          -5.786654     -8.544737     -3.940031
 130           200          -3.302698     -8.242731     -2.094904
 140           200          -1.461106     -7.924868     -.577094 
 150           200          -.100087      -7.629382      .606322 
 160           200           .847668      -7.390731      1.454736
 170           200           1.409694     -7.236017      1.965745
 180           200           1.596204     -7.182478      2.136488
 0             210           .887101      -3.884112      2.136488
 10            210           .708662      -3.929579      1.991676
 20            210           .170032      -4.060897      1.560921
 30            210          -.741423      -4.263248      .855586 
 40            210          -2.057137     -4.513429     -.103595 
 50            210          -3.849536     -4.782098     -1.280534
 60            210          -6.286301     -5.036914     -2.606534
 70            210          -9.794124     -5.24637      -3.940031
 80            210          -15.81932     -5.383939     -5.007837
 90            210          -999          -5.431876     -5.431876
 100           210          -15.81932     -5.383939     -5.007837
 110           210          -9.794124     -5.24637      -3.940031
 120           210          -6.286301     -5.036914     -2.606534
 130           210          -3.849536     -4.782098     -1.280534
 140           210          -2.057137     -4.513429     -.103595 
 150           210          -.741423      -4.263248      .855586 
 160           210           .170032      -4.060897      1.560921
 170           210           .708662      -3.929579      1.991676
 180           210           .887101      -3.884112      2.136488
 0             220          -.178433      -1.702162      2.136488
 10            220          -.346973      -1.737731      2.023383
 20            220          -.856947      -1.840392      1.689408
 30            220          -1.724044     -1.998386      1.15125 
 40            220          -2.984575     -2.193384      .439313 
 50            220          -4.717284     -2.402363     -.397076 
 60            220          -7.097019     -2.600148     -1.280534
 70            220          -10.55765     -2.762414     -2.094904
 80            220          -16.5517      -2.868833     -2.686712
 90            220          -999          -2.905887     -2.905887
 100           220          -16.5517      -2.868833     -2.686712
 110           220          -10.55765     -2.762414     -2.094904
 120           220          -7.097019     -2.600148     -1.280534
 130           220          -4.717284     -2.402363     -.397076 
 140           220          -2.984575     -2.193384      .439313 
 150           220          -1.724044     -1.998386      1.15125 
 160           220          -.856947      -1.840392      1.689408
 170           220          -.346973      -1.737731      2.023383
 180           220          -.178433      -1.702162      2.136488
 0             230          -1.702162     -.178433       2.136488
 10            230          -1.860172     -.203472       2.057001
 20            230          -2.339704     -.27569        1.824083
 30            230          -3.159802     -.386685       1.454736
 40            230          -4.362074     -.523424       .978538 
 50            230          -6.032034     -.669655       .439313 
 60            230          -8.352079     -.80775       -.103595 
 70            230          -11.76352     -.920822      -.577094 
 80            230          -17.72519     -.994868      -.903629 
 90            230          -999          -1.02063      -1.02063 
 100           230          -17.72519     -.994868      -.903629 
 110           230          -11.76352     -.920822      -.577094 
 120           230          -8.352079     -.80775       -.103595 
 130           230          -6.032034     -.669655       .439313 
 140           230          -4.362074     -.523424       .978538 
 150           230          -3.159802     -.386685       1.454736
 160           230          -2.339704     -.27569        1.824083
 170           230          -1.860172     -.203472       2.057001
 180           230          -1.702162     -.178433       2.136488
 0             240          -3.884112      .887101       2.136488
 10            240          -4.032231      .871953       2.088477
 20            240          -4.483204      .828292       1.948778
 30            240          -5.259328      .761272       1.730372
 40            240          -6.407285      .678848       1.454736
 50            240          -8.018986      .590876       1.15125 
 60            240          -10.28385      .507964       .855586 
 70            240          -13.64998      .440197       .606322 
 80            240          -19.58193      .395879       .439313 
 90            240          -999           .380471       .380471 
 100           240          -19.58193      .395879       .439313 
 110           240          -13.64998      .440197       .606322 
 120           240          -10.28385      .507964       .855586 
 130           240          -8.018986      .590876       1.15125 
 140           240          -6.407285      .678848       1.454736
 150           240          -5.259328      .761272       1.730372
 160           240          -4.483204      .828292       1.948778
 170           240          -4.032231      .871953       2.088477
 180           240          -3.884112      .887101       2.136488
 0             250          -7.182478      1.596204      2.136488
 10            250          -7.322536      1.589118      2.114055
 20            250          -7.750264      1.568702      2.049147
 30            250          -8.490674      1.537396      1.948778
 40            250          -9.594657      1.498947      1.824083
 50            250          -11.15936      1.457974      1.689408
 60            250          -13.37986      1.41942       1.560921
 70            250          -16.7097       1.387952      1.454736
 80            250          -22.61788      1.367394      1.384708
 90            250          -999           1.360251      1.360251
 100           250          -22.61788      1.367394      1.384708
 110           250          -16.7097       1.387952      1.454736
 120           250          -13.37986      1.41942       1.560921
 130           250          -11.15936      1.457974      1.689408
 140           250          -9.594657      1.498947      1.824083
 150           250          -8.490674      1.537396      1.948778
 160           250          -7.750264      1.568702      2.049147
 170           250          -7.322536      1.589118      2.114055
 180           250          -7.182478      1.596204      2.136488
 0             260          -13.07011      2.003517      2.136488
 10            260          -13.2049       2.001691      2.130711
 20            260          -13.61748      1.99643       2.114055
 30            260          -14.33464      1.988369      2.088477
 40            260          -15.41007      1.978478      2.057001
 50            260          -16.94433      1.967948      2.023383
 60            260          -19.13617      1.95805       1.991676
 70            260          -22.44261      1.949978      1.965745
 80            260          -28.33551      1.944708      1.948778
 90            260          -999           1.942878      1.942878
 100           260          -28.33551      1.944708      1.948778
 110           260          -22.44261      1.949978      1.965745
 120           260          -19.13617      1.95805       1.991676
 130           260          -16.94433      1.967948      2.023383
 140           260          -15.41007      1.978478      2.057001
 150           260          -14.33464      1.988369      2.088477
 160           260          -13.61748      1.99643       2.114055
 170           260          -13.2049       2.001691      2.130711
 180           260          -13.07011      2.003517      2.136488
 0             270          -999           2.136488      2.136488
 10            270          -999           2.136488      2.136488
 20            270          -999           2.136488      2.136488
 30            270          -999           2.136488      2.136488
 40            270          -999           2.136488      2.136488
 50            270          -999           2.136488      2.136488
 60            270          -999           2.136488      2.136488
 70            270          -999           2.136488      2.136488
 80            270          -999           2.136488      2.136488
 90            270          -999           2.136488      2.136488
 100           270          -999           2.136488      2.136488
 110           270          -999           2.136488      2.136488
 120           270          -999           2.136488      2.136488
 130           270          -999           2.136488      2.136488
 140           270          -999           2.136488      2.136488
 150           270          -999           2.136488      2.136488
 160           270          -999           2.136488      2.136488
 170           270          -999           2.136488      2.136488
 180           270          -999           2.136488      2.136488
 0             280          -13.07011      2.003517      2.136488
 10            280          -13.2049       2.001691      2.130711
 20            280          -13.61748      1.99643       2.114055
 30            280          -14.33464      1.988369      2.088477
 40            280          -15.41007      1.978478      2.057001
 50            280          -16.94433      1.967948      2.023383
 60            280          -19.13617      1.95805       1.991676
 70            280          -22.44261      1.949978      1.965745
 80            280          -28.33551      1.944708      1.948778
 90            280          -999           1.942878      1.942878
 100           280          -28.33551      1.944708      1.948778
 110           280          -22.44261      1.949978      1.965745
 120           280          -19.13617      1.95805       1.991676
 130           280          -16.94433      1.967948      2.023383
 140           280          -15.41007      1.978478      2.057001
 150           280          -14.33464      1.988369      2.088477
 160           280          -13.61748      1.99643       2.114055
 170           280          -13.2049       2.001691      2.130711
 180           280          -13.07011      2.003517      2.136488
 0             290          -7.182478      1.596204      2.136488
 10            290          -7.322536      1.589118      2.114055
 20            290          -7.750264      1.568702      2.049147
 30            290          -8.490674      1.537396      1.948778
 40            290          -9.594657      1.498947      1.824083
 50            290          -11.15936      1.457974      1.689408
 60            290          -13.37986      1.41942       1.560921
 70            290          -16.7097       1.387952      1.454736
 80            290          -22.61788      1.367394      1.384708
 90            290          -999           1.360251      1.360251
 100           290          -22.61788      1.367394      1.384708
 110           290          -16.7097       1.387952      1.454736
 120           290          -13.37986      1.41942       1.560921
 130           290          -11.15936      1.457974      1.689408
 140           290          -9.594657      1.498947      1.824083
 150           290          -8.490674      1.537396      1.948778
 160           290          -7.750264      1.568702      2.049147
 170           290          -7.322536      1.589118      2.114055
 180           290          -7.182478      1.596204      2.136488
 0             300          -3.884112      .887101       2.136488
 10            300          -4.032231      .871953       2.088477
 20            300          -4.483204      .828292       1.948778
 30            300          -5.259328      .761272       1.730372
 40            300          -6.407285      .678848       1.454736
 50            300          -8.018986      .590876       1.15125 
 60            300          -10.28385      .507964       .855586 
 70            300          -13.64998      .440197       .606322 
 80            300          -19.58193      .395879       .439313 
 90            300          -999           .380471       .380471 
 100           300          -19.58193      .395879       .439313 
 110           300          -13.64998      .440197       .606322 
 120           300          -10.28385      .507964       .855586 
 130           300          -8.018986      .590876       1.15125 
 140           300          -6.407285      .678848       1.454736
 150           300          -5.259328      .761272       1.730372
 160           300          -4.483204      .828292       1.948778
 170           300          -4.032231      .871953       2.088477
 180           300          -3.884112      .887101       2.136488
 0             310          -1.702162     -.178433       2.136488
 10            310          -1.860172     -.203472       2.057001
 20            310          -2.339704     -.27569        1.824083
 30            310          -3.159802     -.386685       1.454736
 40            310          -4.362074     -.523424       .978538 
 50            310          -6.032034     -.669655       .439313 
 60            310          -8.352079     -.80775       -.103595 
 70            310          -11.76352     -.920822      -.577094 
 80            310          -17.72519     -.994868      -.903629 
 90            310          -999          -1.02063      -1.02063 
 100           310          -17.72519     -.994868      -.903629 
 110           310          -11.76352     -.920822      -.577094 
 120           310          -8.352079     -.80775       -.103595 
 130           310          -6.032034     -.669655       .439313 
 140           310          -4.362074     -.523424       .978538 
 150           310          -3.159802     -.386685       1.454736
 160           310          -2.339704     -.27569        1.824083
 170           310          -1.860172     -.203472       2.057001
 180           310          -1.702162     -.178433       2.136488
 0             320          -.178433      -1.702162      2.136488
 10            320          -.346973      -1.737731      2.023383
 20            320          -.856947      -1.840392      1.689408
 30            320          -1.724044     -1.998386      1.15125 
 40            320          -2.984575     -2.193384      .439313 
 50            320          -4.717284     -2.402363     -.397076 
 60            320          -7.097019     -2.600148     -1.280534
 70            320          -10.55765     -2.762414     -2.094904
 80            320          -16.5517      -2.868833     -2.686712
 90            320          -999          -2.905887     -2.905887
 100           320          -16.5517      -2.868833     -2.686712
 110           320          -10.55765     -2.762414     -2.094904
 120           320          -7.097019     -2.600148     -1.280534
 130           320          -4.717284     -2.402363     -.397076 
 140           320          -2.984575     -2.193384      .439313 
 150           320          -1.724044     -1.998386      1.15125 
 160           320          -.856947      -1.840392      1.689408
 170           320          -.346973      -1.737731      2.023383
 180           320          -.178433      -1.702162      2.136488
 0             330           .887101      -3.884112      2.136488
 10            330           .708662      -3.929579      1.991676
 20            330           .170032      -4.060897      1.560921
 30            330          -.741423      -4.263248      .855586 
 40            330          -2.057137     -4.513429     -.103595 
 50            330          -3.849536     -4.782098     -1.280534
 60            330          -6.286301     -5.036914     -2.606534
 70            330          -9.794124     -5.24637      -3.940031
 80            330          -15.81932     -5.383939     -5.007837
 90            330          -999          -5.431876     -5.431876
 100           330          -15.81932     -5.383939     -5.007837
 110           330          -9.794124     -5.24637      -3.940031
 120           330          -6.286301     -5.036914     -2.606534
 130           330          -3.849536     -4.782098     -1.280534
 140           330          -2.057137     -4.513429     -.103595 
 150           330          -.741423      -4.263248      .855586 
 160           330           .170032      -4.060897      1.560921
 170           330           .708662      -3.929579      1.991676
 180           330           .887101      -3.884112      2.136488
 0             340           1.596204     -7.182478      2.136488
 10            340           1.409694     -7.236017      1.965745
 20            340           .847668      -7.390731      1.454736
 30            340          -.100087      -7.629382      .606322 
 40            340          -1.461106     -7.924868     -.577094 
 50            340          -3.302698     -8.242731     -2.094904
 60            340          -5.786654     -8.544737     -3.940031
 70            340          -9.333668     -8.793385     -6.04483 
 80            340          -15.38481     -8.956896     -8.066259
 90            340          -999          -9.013912     -9.013912
 100           340          -15.38481     -8.956896     -8.066259
 110           340          -9.333668     -8.793385     -6.04483 
 120           340          -5.786654     -8.544737     -3.940031
 130           340          -3.302698     -8.242731     -2.094904
 140           340          -1.461106     -7.924868     -.577094 
 150           340          -.100087      -7.629382      .606322 
 160           340           .847668      -7.390731      1.454736
 170           340           1.409694     -7.236017      1.965745
 180           340           1.596204     -7.182478      2.136488
 0             350           2.003517     -13.07011      2.136488
 10            350           1.811738     -13.12892      1.948778
 20            350           1.234424     -13.29892      1.384708
 30            350           .262908      -13.56133      .439313 
 40            350          -1.127839     -13.88654     -.903629 
 50            350          -3.001804     -14.23678     -2.686712
 60            350          -5.51691      -14.56993     -5.007837
 70            350          -9.089867     -14.84452     -8.066259
 80            350          -15.15822     -15.02525     -12.08092
 90            350          -999          -15.08829     -15.08829
 100           350          -15.15822     -15.02525     -12.08092
 110           350          -9.089867     -14.84452     -8.066259
 120           350          -5.51691      -14.56993     -5.007837
 130           350          -3.001804     -14.23678     -2.686712
 140           350          -1.127839     -13.88654     -.903629 
 150           350           .262908      -13.56133      .439313 
 160           350           1.234424     -13.29892      1.384708
 170           350           1.811738     -13.12892      1.948778
 180           350           2.003517     -13.07011      2.136488
 0             360           2.136488     -999           2.136488
 10            360           1.942878     -999           1.942878
 20            360           1.360251     -999           1.360251
 30            360           .380471      -999           .380471 
 40            360          -1.02063      -999          -1.02063 
 50            360          -2.905887     -999          -2.905887
 60            360          -5.431876     -999          -5.431876
 70            360          -9.013912     -999          -9.013912
 80            360          -15.08829     -999          -15.08829
 90            360          -999          -999          -999     
 100           360          -15.08829     -999          -15.08829
 110           360          -9.013912     -999          -9.013912
 120           360          -5.431876     -999          -5.431876
 130           360          -2.905887     -999          -2.905887
 140           360          -1.02063      -999          -1.02063 
 150           360           .380471      -999           .380471 
 160           360           1.360251     -999           1.360251
 170           360           1.942878     -999           1.942878
 180           360           2.136488     -999           2.136488