                   ****************************************
                     MINI-NUMERICAL ELECTROMAGNETICS CODE
                                   MININEC
                   ****************************************

FREQUENCY (MHZ): 7
    WAVE LENGTH =  42.82857  METERS

ENVIRONMENT (+1 FOR FREE SPACE, -1 FOR GROUND PLANE): +1

NO. OF GEO-OBJECTS: 1

WIRE NO. 1
            COORDINATES                                 END         NO. OF
   X             Y             Z          RADIUS     CONNECTION     SEGMENTS
 0             0             0                          0
 21.41428      0             0             .01          0             10

                  **** ANTENNA GEOMETRY ****

WIRE NO.  1 COORDINATES                                 CONNECTION PULSE
X             Y             Z             RADIUS        END1 END2  NO.
 2.141428      0             0             .01           0    1   1
 4.282857      0             0             .01           1    1   2
 6.424285      0             0             .01           1    1   3
 8.565714      0             0             .01           1    1   4
 10.70714      0             0             .01           1    1   5
 12.84857      0             0             .01           1    1   6
 14.99         0             0             .01           1    1   7
 17.13143      0             0             .01           1    1   8
 19.27286      0             0             .01           1    0   9

NO. OF SOURCES :  1
PULSE NO., VOLTAGE MAGNITUDE, PHASE (DEGREES):  5 , 1 , 0
NUMBER OF LOADS 0

********************    SOURCE DATA     ********************
PULSE  5      VOLTAGE = ( 1 , 0 J)
              CURRENT = ( 1.006964E-02 , -5.166080E-03 J)
              IMPEDANCE = ( 78.61622 ,  40.33289 J)
              POWER =  5.034821E-03  WATTS

********************    CURRENT DATA    ********************

WIRE NO.  1 :
PULSE         REAL          IMAGINARY     MAGNITUDE     PHASE
 NO.          (AMPS)        (AMPS)        (AMPS)        (DEGREES)
E              0             0             0             0
 1             3.333007E-03 -2.117273E-03  3.948643E-03 -32.42551 
 2             6.098124E-03 -3.746618E-03  7.157113E-03 -31.56609 
 3             8.241238E-03 -4.862084E-03  9.568588E-03 -30.53934 
 4             9.602605E-03 -5.369345E-03  1.100181E-02 -29.21196 
 5             1.006964E-02 -5.166080E-03  1.131751E-02 -27.15942 
 6             9.602605E-03 -5.369345E-03  1.100181E-02 -29.21196 
 7             8.241238E-03 -4.862084E-03  9.568588E-03 -30.53934 
 8             6.098124E-03 -3.746618E-03  7.157113E-03 -31.56609 
 9             3.333007E-03 -2.117273E-03  3.948643E-03 -32.42551 
E              0             0             0             0

********************     FAR FIELD      ********************

ZENITH ANGLE : INITIAL,INCREMENT,NUMBER: 0 , 10 , 19
AZIMUTH ANGLE: INITIAL,INCREMENT,NUMBER: 0 , 10 , 37

********************    PATTERN DATA    ********************
ZENITH        AZIMUTH       VERTICAL      HORIZONTAL    TOTAL
 ANGLE         ANGLE        PATTERN (DB)  PATTERN (DB)  PATTERN (DB)
 0             0             2.140557     -999           2.140557
 10            0             1.946296     -999           1.946296
 20            0             1.36177      -999           1.36177 
 30            0             .379008      -999           .379008 
 40            0            -1.025873     -999          -1.025873
 50            0            -2.915311     -999          -2.915311
 60            0            -5.445387     -999          -5.445387
 70            0            -9.030872     -999          -9.030872
 80            0            -15.10756     -999          -15.10756
 90            0            -999          -999          -999     
 100           0            -15.10756     -999          -15.10756
 110           0            -9.030872     -999          -9.030872
 120           0            -5.445387     -999          -5.445387
 130           0            -2.915311     -999          -2.915311
 140           0            -1.025873     -999          -1.025873
 150           0             .379008      -999           .379008 
 160           0             1.36177      -999           1.36177 
 170           0             1.946296     -999           1.946296
 180           0             2.140557     -999           2.140557
 0             10            2.007586     -13.06604      2.140557
 10            10            1.815175     -13.12548      1.952215
 20            10            1.23602      -13.29732      1.386304
 30            10            .261616      -13.56262      .438021 
 40            10           -1.132789     -13.89149     -.908579 
 50            10           -3.010795     -14.24577     -2.695703
 60            10           -5.529844     -14.58287     -5.020772
 70            10           -9.106127     -14.86079     -8.08252 
 80            10           -15.17671     -15.04373     -12.09941
 90            10           -999          -15.10756     -15.10756
 100           10           -15.17671     -15.04373     -12.09941
 110           10           -9.106127     -14.86079     -8.08252 
 120           10           -5.529844     -14.58287     -5.020772
 130           10           -3.010795     -14.24577     -2.695703
 140           10           -1.132789     -13.89149     -.908579 
 150           10            .261616      -13.56262      .438021 
 160           10            1.23602      -13.29732      1.386304
 170           10            1.815175     -13.12548      1.952215
 180           10            2.007586     -13.06604      2.140557
 0             20            1.600273     -7.178409      2.140557
 10            20            1.413188     -7.232523      1.969239
 20            20            .849488      -7.388911      1.456557
 30            20           -.100886      -7.630182      .605522 
 40            20           -1.465215     -7.928977     -.581203 
 50            20           -3.310449     -8.250482     -2.102656
 60            20           -5.797948     -8.556031     -3.951325
 70            20           -9.34794      -8.807656     -6.059102
 80            20           -15.40107     -8.973157     -8.08252 
 90            20           -999          -9.030872     -9.030872
 100           20           -15.40107     -8.973157     -8.08252 
 110           20           -9.34794      -8.807656     -6.059102
 120           20           -5.797948     -8.556031     -3.951325
 130           20           -3.310449     -8.250482     -2.102656
 140           20           -1.465215     -7.928977     -.581203 
 150           20           -.100886      -7.630182      .605522 
 160           20            .849488      -7.388911      1.456557
 170           20            1.413188     -7.232523      1.969239
 180           20            1.600273     -7.178409      2.140557
 0             30            .89117       -3.880043      2.140557
 10            30            .712243      -3.925999      1.995257
 20            30            .172194      -4.058734      1.563084
 30            30           -.741474      -4.263299      .855534 
 40            30           -2.059971     -4.516263     -.106429 
 50            30           -3.855417     -4.787979     -1.286415
 60            30           -6.29513      -5.045743     -2.615362
 70            30           -9.805418     -5.257664     -3.951325
 80            30           -15.83226     -5.396873     -5.020772
 90            30           -999          -5.445387     -5.445387
 100           30           -15.83226     -5.396873     -5.020772
 110           30           -9.805418     -5.257664     -3.951325
 120           30           -6.29513      -5.045743     -2.615362
 130           30           -3.855417     -4.787979     -1.286415
 140           30           -2.059971     -4.516263     -.106429 
 150           30           -.741474      -4.263299      .855534 
 160           30            .172194      -4.058734      1.563084
 170           30            .712243      -3.925999      1.995257
 180           30            .89117       -3.880043      2.140557
 0             40           -.174364      -1.698093      2.140557
 10            40           -.343285      -1.734044      2.02707 
 20            40           -.854367      -1.837812      1.691989
 30            40           -1.723185     -1.997527      1.15211 
 40            40           -2.985867     -2.194676      .438021 
 50            40           -4.720916     -2.405996     -.400708 
 60            40           -7.1029       -2.60603      -1.286415
 70            40           -10.5654      -2.770166     -2.102656
 80            40           -16.56069     -2.877824     -2.695703
 90            40           -999          -2.915311     -2.915311
 100           40           -16.56069     -2.877824     -2.695703
 110           40           -10.5654      -2.770166     -2.102656
 120           40           -7.1029       -2.60603      -1.286415
 130           40           -4.720916     -2.405996     -.400708 
 140           40           -2.985867     -2.194676      .438021 
 150           40           -1.723185     -1.997527      1.15211 
 160           40           -.854367      -1.837812      1.691989
 170           40           -.343285      -1.734044      2.02707 
 180           40           -.174364      -1.698093      2.140557
 0             50           -1.698093     -.174364       2.140557
 10            50           -1.856372     -.199672       2.060801
 20            50           -2.336681     -.272667       1.827106
 30            50           -3.157982     -.384865       1.456557
 40            50           -4.361749     -.523099       .978863 
 50            50           -6.033326     -.670946       .438021 
 60            50           -8.354913     -.810584      -.106429 
 70            50           -11.76763     -.924931      -.581203 
 80            50           -17.73014     -.999818      -.908579 
 90            50           -999          -1.025873     -1.025873
 100           50           -17.73014     -.999818      -.908579 
 110           50           -11.76763     -.924931      -.581203 
 120           50           -8.354913     -.810584      -.106429 
 130           50           -6.033326     -.670946       .438021 
 140           50           -4.361749     -.523099       .978863 
 150           50           -3.157982     -.384865       1.456557
 160           50           -2.336681     -.272667       1.827106
 170           50           -1.856372     -.199672       2.060801
 180           50           -1.698093     -.174364       2.140557
 0             60           -3.880043      .89117        2.140557
 10            60           -4.028324      .875859       2.092384
 20            60           -4.479767      .831729       1.952215
 30            60           -5.256614      .763986       1.733086
 40            60           -6.405465      .680668       1.456557
 50            60           -8.018127      .591736       1.15211 
 60            60           -10.2839       .507913       .855534 
 70            60           -13.65078      .439397       .605522 
 80            60           -19.58322      .394587       .438021 
 90            60           -999           .379008       .379008 
 100           60           -19.58322      .394587       .438021 
 110           60           -13.65078      .439397       .605522 
 120           60           -10.2839       .507913       .855534 
 130           60           -8.018127      .591736       1.15211 
 140           60           -6.405465      .680668       1.456557
 150           60           -5.256614      .763986       1.733086
 160           60           -4.479767      .831729       1.952215
 170           60           -4.028324      .875859       2.092384
 180           60           -3.880043      .89117        2.140557
 0             70           -7.178409      1.600273      2.140557
 10            70           -7.318543      1.59311       2.118048
 20            70           -7.746491      1.572476      2.052921
 30            70           -8.487237      1.540833      1.952215
 40            70           -9.591634      1.50197       1.827106
 50            70           -11.15678      1.460554      1.691989
 60            70           -13.3777       1.421582      1.563084
 70            70           -16.70788      1.389772      1.456557
 80            70           -22.61629      1.368991      1.386304
 90            70           -999           1.36177       1.36177 
 100           70           -22.61629      1.368991      1.386304
 110           70           -16.70788      1.389772      1.456557
 120           70           -13.3777       1.421582      1.563084
 130           70           -11.15678      1.460554      1.691989
 140           70           -9.591634      1.50197       1.827106
 150           70           -8.487237      1.540833      1.952215
 160           70           -7.746491      1.572476      2.052921
 170           70           -7.318543      1.59311       2.118048
 180           70           -7.178409      1.600273      2.140557
 0             80           -13.06604      2.007586      2.140557
 10            80           -13.20086      2.00574       2.13476 
 20            80           -13.61348      2.000423      2.118048
 30            80           -14.33074      1.992276      2.092384
 40            80           -15.40627      1.982278      2.060801
 50            80           -16.94064      1.971635      2.02707 
 60            80           -19.13259      1.961631      1.995257
 70            80           -22.43912      1.953472      1.969239
 80            80           -28.33207      1.948146      1.952215
 90            80           -999           1.946296      1.946296
 100           80           -28.33207      1.948146      1.952215
 110           80           -22.43912      1.953472      1.969239
 120           80           -19.13259      1.961631      1.995257
 130           80           -16.94064      1.971635      2.02707 
 140           80           -15.40627      1.982278      2.060801
 150           80           -14.33074      1.992276      2.092384
 160           80           -13.61348      2.000423      2.118048
 170           80           -13.20086      2.00574       2.13476 
 180           80           -13.06604      2.007586      2.140557
 0             90           -999           2.140557      2.140557
 10            90           -999           2.140557      2.140557
 20            90           -999           2.140557      2.140557
 30            90           -999           2.140557      2.140557
 40            90           -999           2.140557      2.140557
 50            90           -999           2.140557      2.140557
 60            90           -999           2.140557      2.140557
 70            90           -999           2.140557      2.140557
 80            90           -999           2.140557      2.140557
 90            90           -999           2.140557      2.140557
 100           90           -999           2.140557      2.140557
 110           90           -999           2.140557      2.140557
 120           90           -999           2.140557      2.140557
 130           90           -999           2.140557      2.140557
 140           90           -999           2.140557      2.140557
 150           90           -999           2.140557      2.140557
 160           90           -999           2.140557      2.140557
 170           90           -999           2.140557      2.140557
 180           90           -999           2.140557      2.140557
 0             100          -13.06604      2.007586      2.140557
 10            100          -13.20086      2.00574       2.13476 
 20            100          -13.61348      2.000423      2.118048
 30            100          -14.33074      1.992276      2.092384
 40            100          -15.40627      1.982278      2.060801
 50            100          -16.94064      1.971635      2.02707 
 60            100          -19.13259      1.961631      1.995257
 70            100          -22.43912      1.953472      1.969239
 80            100          -28.33207      1.948146      1.952215
 90            100          -999           1.946296      1.946296
 100           100          -28.33207      1.948146      1.952215
 110           100          -22.43912      1.953472      1.969239
 120           100          -19.13259      1.961631      1.995257
 130           100          -16.94064      1.971635      2.02707 
 140           100          -15.40627      1.982278      2.060801
 150           100          -14.33074      1.992276      2.092384
 160           100          -13.61348      2.000423      2.118048
 170           100          -13.20086      2.00574       2.13476 
 180           100          -13.06604      2.007586      2.140557
 0             110          -7.178409      1.600273      2.140557
 10            110          -7.318543      1.59311       2.118048
 20            110          -7.746491      1.572476      2.052921
 30            110          -8.487237      1.540833      1.952215
 40            110          -9.591634      1.50197       1.827106
 50            110          -11.15678      1.460554      1.691989
 60            110          -13.3777       1.421582      1.563084
 70            110          -16.70788      1.389772      1.456557
 80            110          -22.61629      1.368991      1.386304
 90            110          -999           1.36177       1.36177 
 100           110          -22.61629      1.368991      1.386304
 110           110          -16.70788      1.389772      1.456557
 120           110          -13.3777       1.421582      1.563084
 130           110          -11.15678      1.460554      1.691989
 140           110          -9.591634      1.50197       1.827106
 150           110          -8.487237      1.540833      1.952215
 160           110          -7.746491      1.572476      2.052921
 170           110          -7.318543      1.59311       2.118048
 180           110          -7.178409      1.600273      2.140557
 0             120          -3.880043      .89117        2.140557
 10            120          -4.028324      .875859       2.092384
 20            120          -4.479767      .831729       1.952215
 30            120          -5.256614      .763986       1.733086
 40            120          -6.405465      .680668       1.456557
 50            120          -8.018127      .591736       1.15211 
 60            120          -10.2839       .507913       .855534 
 70            120          -13.65078      .439397       .605522 
 80            120          -19.58322      .394587       .438021 
 90            120          -999           .379008       .379008 
 100           120          -19.58322      .394587       .438021 
 110           120          -13.65078      .439397       .605522 
 120           120          -10.2839       .507913       .855534 
 130           120          -8.018127      .591736       1.15211 
 140           120          -6.405465      .680668       1.456557
 150           120          -5.256614      .763986       1.733086
 160           120          -4.479767      .831729       1.952215
 170           120          -4.028324      .875859       2.092384
 180           120          -3.880043      .89117        2.140557
 0             130          -1.698093     -.174364       2.140557
 10            130          -1.856372     -.199672       2.060801
 20            130          -2.336681     -.272667       1.827106
 30            130          -3.157982     -.384865       1.456557
 40            130          -4.361749     -.523099       .978863 
 50            130          -6.033326     -.670946       .438021 
 60            130          -8.354913     -.810584      -.106429 
 70            130          -11.76763     -.924931      -.581203 
 80            130          -17.73014     -.999818      -.908579 
 90            130          -999          -1.025873     -1.025873
 100           130          -17.73014     -.999818      -.908579 
 110           130          -11.76763     -.924931      -.581203 
 120           130          -8.354913     -.810584      -.106429 
 130           130          -6.033326     -.670946       .438021 
 140           130          -4.361749     -.523099       .978863 
 150           130          -3.157982     -.384865       1.456557
 160           130          -2.336681     -.272667       1.827106
 170           130          -1.856372     -.199672       2.060801
 180           130          -1.698093     -.174364       2.140557
 0             140          -.174364      -1.698093      2.140557
 10            140          -.343285      -1.734044      2.02707 
 20            140          -.854367      -1.837812      1.691989
 30            140          -1.723185     -1.997527      1.15211 
 40            140          -2.985867     -2.194676      .438021 
 50            140          -4.720916     -2.405996     -.400708 
 60            140          -7.1029       -2.60603      -1.286415
 70            140          -10.5654      -2.770166     -2.102656
 80            140          -16.56069     -2.877824     -2.695703
 90            140          -999          -2.915311     -2.915311
 100           140          -16.56069     -2.877824     -2.695703
 110           140          -10.5654      -2.770166     -2.102656
 120           140          -7.1029       -2.60603      -1.286415
 130           140          -4.720916     -2.405996     -.400708 
 140           140          -2.985867     -2.194676      .438021 
 150           140          -1.723185     -1.997527      1.15211 
 160           140          -.854367      -1.837812      1.691989
 170           140          -.343285      -1.734044      2.02707 
 180           140          -.174364      -1.698093      2.140557
 0             150           .89117       -3.880043      2.140557
 10            150           .712243      -3.925999      1.995257
 20            150           .172194      -4.058734      1.563084
 30            150          -.741474      -4.263299      .855534 
 40            150          -2.059971     -4.516263     -.106429 
 50            150          -3.855417     -4.787979     -1.286415
 60            150          -6.29513      -5.045743     -2.615362
 70            150          -9.805418     -5.257664     -3.951325
 80            150          -15.83226     -5.396873     -5.020772
 90            150          -999          -5.445387     -5.445387
 100           150          -15.83226     -5.396873     -5.020772
 110           150          -9.805418     -5.257664     -3.951325
 120           150          -6.29513      -5.045743     -2.615362
 130           150          -3.855417     -4.787979     -1.286415
 140           150          -2.059971     -4.516263     -.106429 
 150           150          -.741474      -4.263299      .855534 
 160           150           .172194      -4.058734      1.563084
 170           150           .712243      -3.925999      1.995257
 180           150           .89117       -3.880043      2.140557
 0             160           1.600273     -7.178409      2.140557
 10            160           1.413188     -7.232523      1.969239
 20            160           .849488      -7.388911      1.456557
 30            160          -.100886      -7.630182      .605522 
 40            160          -1.465215     -7.928977     -.581203 
 50            160          -3.310449     -8.250482     -2.102656
 60            160          -5.797948     -8.556031     -3.951325
 70            160          -9.34794      -8.807656     -6.059102
 80            160          -15.40107     -8.973157     -8.08252 
 90            160          -999          -9.030872     -9.030872
 100           160          -15.40107     -8.973157     -8.08252 
 110           160          -9.34794      -8.807656     -6.059102
 120           160          -5.797948     -8.556031     -3.951325
 130           160          -3.310449     -8.250482     -2.102656
 140           160          -1.465215     -7.928977     -.581203 
 150           160          -.100886      -7.630182      .605522 
 160           160           .849488      -7.388911      1.456557
 170           160           1.413188     -7.232523      1.969239
 180           160           1.600273     -7.178409      2.140557
 0             170           2.007586     -13.06604      2.140557
 10            170           1.815175     -13.12548      1.952215
 20            170           1.23602      -13.29732      1.386304
 30            170           .261616      -13.56262      .438021 
 40            170          -1.132789     -13.89149     -.908579 
 50            170          -3.010795     -14.24577     -2.695703
 60            170          -5.529844     -14.58287     -5.020772
 70            170          -9.106127     -14.86079     -8.08252 
 80            170          -15.17671     -15.04373     -12.09941
 90            170          -999          -15.10756     -15.10756
 100           170          -15.17671     -15.04373     -12.09941
 110           170          -9.106127     -14.86079     -8.08252 
 120           170          -5.529844     -14.58287     -5.020772
 130           170          -3.010795     -14.24577     -2.695703
 140           170          -1.132789     -13.89149     -.908579 
 150           170           .261616      -13.56262      .438021 
 160           170           1.23602      -13.29732      1.386304
 170           170           1.815175     -13.12548      1.952215
 180           170           2.007586     -13.06604      2.140557
 0             180           2.140557     -999           2.140557
 10            180           1.946296     -999           1.946296
 20            180           1.36177      -999           1.36177 
 30            180           .379008      -999           .379008 
 40            180          -1.025873     -999          -1.025873
 50            180          -2.915311     -999          -2.915311
 60            180          -5.445387     -999          -5.445387
 70            180          -9.030872     -999          -9.030872
 80            180          -15.10756     -999          -15.10756
 90            180          -999          -999          -999     
 100           180          -15.10756     -999          -15.10756
 110           180          -9.030872     -999          -9.030872
 120           180          -5.445387     -999          -5.445387
 130           180          -2.915311     -999          -2.915311
 140           180          -1.025873     -999          -1.025873
 150           180           .379008      -999           .379008 
 160           180           1.36177      -999           1.36177 
 170           180           1.946296     -999           1.946296
 180           180           2.140557     -999           2.140557
 0             190           2.007586     -13.06604      2.140557
 10            190           1.815175     -13.12548      1.952215
 20            190           1.23602      -13.29732      1.386304
 30            190           .261616      -13.56262      .438021 
 40            190          -1.132789     -13.89149     -.908579 
 50            190          -3.010795     -14.24577     -2.695703
 60            190          -5.529844     -14.58287     -5.020772
 70            190          -9.106127     -14.86079     -8.08252 
 80            190          -15.17671     -15.04373     -12.09941
 90            190          -999          -15.10756     -15.10756
 100           190          -15.17671     -15.04373     -12.09941
 110           190          -9.106127     -14.86079     -8.08252 
 120           190          -5.529844     -14.58287     -5.020772
 130           190          -3.010795     -14.24577     -2.695703
 140           190          -1.132789     -13.89149     -.908579 
 150           190           .261616      -13.56262      .438021 
 160           190           1.23602      -13.29732      1.386304
 170           190           1.815175     -13.12548      1.952215
 180           190           2.007586     -13.06604      2.140557
 0             200           1.600273     -7.178409      2.140557
 10            200           1.413188     -7.232523      1.969239
 20            200           .849488      -7.388911      1.456557
 30            200          -.100886      -7.630182      .605522 
 40            200          -1.465215     -7.928977     -.581203 
 50            200          -3.310449     -8.250482     -2.102656
 60            200          -5.797948     -8.556031     -3.951325
 70            200          -9.34794      -8.807656     -6.059102
 80            200          -15.40107     -8.973157     -8.08252 
 90            200          -999          -9.030872     -9.030872
 100           200          -15.40107     -8.973157     -8.08252 
 110           200          -9.34794      -8.807656     -6.059102
 120           200          -5.797948     -8.556031     -3.951325
 130           200          -3.310449     -8.250482     -2.102656
 140           200          -1.465215     -7.928977     -.581203 
 150           200          -.100886      -7.630182      .605522 
 160           200           .849488      -7.388911      1.456557
 170           200           1.413188     -7.232523      1.969239
 180           200           1.600273     -7.178409      2.140557
 0             210           .89117       -3.880043      2.140557
 10            210           .712243      -3.925999      1.995257
 20            210           .172194      -4.058734      1.563084
 30            210          -.741474      -4.263299      .855534 
 40            210          -2.059971     -4.516263     -.106429 
 50            210          -3.855417     -4.787979     -1.286415
 60            210          -6.29513      -5.045743     -2.615362
 70            210          -9.805418     -5.257664     -3.951325
 80            210          -15.83226     -5.396873     -5.020772
 90            210          -999          -5.445387     -5.445387
 100           210          -15.83226     -5.396873     -5.020772
 110           210          -9.805418     -5.257664     -3.951325
 120           210          -6.29513      -5.045743     -2.615362
 130           210          -3.855417     -4.787979     -1.286415
 140           210          -2.059971     -4.516263     -.106429 
 150           210          -.741474      -4.263299      .855534 
 160           210           .172194      -4.058734      1.563084
 170           210           .712243      -3.925999      1.995257
 180           210           .89117       -3.880043      2.140557
 0             220          -.174364      -1.698093      2.140557
 10            220          -.343285      -1.734044      2.02707 
 20            220          -.854367      -1.837812      1.691989
 30            220          -1.723185     -1.997527      1.15211 
 40            220          -2.985867     -2.194676      .438021 
 50            220          -4.720916     -2.405996     -.400708 
 60            220          -7.1029       -2.60603      -1.286415
 70            220          -10.5654      -2.770166     -2.102656
 80            220          -16.56069     -2.877824     -2.695703
 90            220          -999          -2.915311     -2.915311
 100           220          -16.56069     -2.877824     -2.695703
 110           220          -10.5654      -2.770166     -2.102656
 120           220          -7.1029       -2.60603      -1.286415
 130           220          -4.720916     -2.405996     -.400708 
 140           220          -2.985867     -2.194676      .438021 
 150           220          -1.723185     -1.997527      1.15211 
 160           220          -.854367      -1.837812      1.691989
 170           220          -.343285      -1.734044      2.02707 
 180           220          -.174364      -1.698093      2.140557
 0             230          -1.698093     -.174364       2.140557
 10            230          -1.856372     -.199672       2.060801
 20            230          -2.336681     -.272667       1.827106
 30            230          -3.157982     -.384865       1.456557
 40            230          -4.361749     -.523099       .978863 
 50            230          -6.033326     -.670946       .438021 
 60            230          -8.354913     -.810584      -.106429 
 70            230          -11.76763     -.924931      -.581203 
 80            230          -17.73014     -.999818      -.908579 
 90            230          -999          -1.025873     -1.025873
 100           230          -17.73014     -.999818      -.908579 
 110           230          -11.76763     -.924931      -.581203 
 120           230          -8.354913     -.810584      -.106429 
 130           230          -6.033326     -.670946       .438021 
 140           230          -4.361749     -.523099       .978863 
 150           230          -3.157982     -.384865       1.456557
 160           230          -2.336681     -.272667       1.827106
 170           230          -1.856372     -.199672       2.060801
 180           230          -1.698093     -.174364       2.140557
 0             240          -3.880043      .89117        2.140557
 10            240          -4.028324      .875859       2.092384
 20            240          -4.479767      .831729       1.952215
 30            240          -5.256614      .763986       1.733086
 40            240          -6.405465      .680668       1.456557
 50            240          -8.018127      .591736       1.15211 
 60            240          -10.2839       .507913       .855534 
 70            240          -13.65078      .439397       .605522 
 80            240          -19.58322      .394587       .438021 
 90            240          -999           .379008       .379008 
 100           240          -19.58322      .394587       .438021 
 110           240          -13.65078      .439397       .605522 
 120           240          -10.2839       .507913       .855534 
 130           240          -8.018127      .591736       1.15211 
 140           240          -6.405465      .680668       1.456557
 150           240          -5.256614      .763986       1.733086
 160           240          -4.479767      .831729       1.952215
 170           240          -4.028324      .875859       2.092384
 180           240          -3.880043      .89117        2.140557
 0             250          -7.178409      1.600273      2.140557
 10            250          -7.318543      1.59311       2.118048
 20            250          -7.746491      1.572476      2.052921
 30            250          -8.487237      1.540833      1.952215
 40            250          -9.591634      1.50197       1.827106
 50            250          -11.15678      1.460554      1.691989
 60            250          -13.3777       1.421582      1.563084
 70            250          -16.70788      1.389772      1.456557
 80            250          -22.61629      1.368991      1.386304
 90            250          -999           1.36177       1.36177 
 100           250          -22.61629      1.368991      1.386304
 110           250          -16.70788      1.389772      1.456557
 120           250          -13.3777       1.421582      1.563084
 130           250          -11.15678      1.460554      1.691989
 140           250          -9.591634      1.50197       1.827106
 150           250          -8.487237      1.540833      1.952215
 160           250          -7.746491      1.572476      2.052921
 170           250          -7.318543      1.59311       2.118048
 180           250          -7.178409      1.600273      2.140557
 0             260          -13.06604      2.007586      2.140557
 10            260          -13.20086      2.00574       2.13476 
 20            260          -13.61348      2.000423      2.118048
 30            260          -14.33074      1.992276      2.092384
 40            260          -15.40627      1.982278      2.060801
 50            260          -16.94064      1.971635      2.02707 
 60            260          -19.13259      1.961631      1.995257
 70            260          -22.43912      1.953472      1.969239
 80            260          -28.33207      1.948146      1.952215
 90            260          -999           1.946296      1.946296
 100           260          -28.33207      1.948146      1.952215
 110           260          -22.43912      1.953472      1.969239
 120           260          -19.13259      1.961631      1.995257
 130           260          -16.94064      1.971635      2.02707 
 140           260          -15.40627      1.982278      2.060801
 150           260          -14.33074      1.992276      2.092384
 160           260          -13.61348      2.000423      2.118048
 170           260          -13.20086      2.00574       2.13476 
 180           260          -13.06604      2.007586      2.140557
 0             270          -999           2.140557      2.140557
 10            270          -999           2.140557      2.140557
 20            270          -999           2.140557      2.140557
 30            270          -999           2.140557      2.140557
 40            270          -999           2.140557      2.140557
 50            270          -999           2.140557      2.140557
 60            270          -999           2.140557      2.140557
 70            270          -999           2.140557      2.140557
 80            270          -999           2.140557      2.140557
 90            270          -999           2.140557      2.140557
 100           270          -999           2.140557      2.140557
 110           270          -999           2.140557      2.140557
 120           270          -999           2.140557      2.140557
 130           270          -999           2.140557      2.140557
 140           270          -999           2.140557      2.140557
 150           270          -999           2.140557      2.140557
 160           270          -999           2.140557      2.140557
 170           270          -999           2.140557      2.140557
 180           270          -999           2.140557      2.140557
 0             280          -13.06604      2.007586      2.140557
 10            280          -13.20086      2.00574       2.13476 
 20            280          -13.61348      2.000423      2.118048
 30            280          -14.33074      1.992276      2.092384
 40            280          -15.40627      1.982278      2.060801
 50            280          -16.94064      1.971635      2.02707 
 60            280          -19.13259      1.961631      1.995257
 70            280          -22.43912      1.953472      1.969239
 80            280          -28.33207      1.948146      1.952215
 90            280          -999           1.946296      1.946296
 100           280          -28.33207      1.948146      1.952215
 110           280          -22.43912      1.953472      1.969239
 120           280          -19.13259      1.961631      1.995257
 130           280          -16.94064      1.971635      2.02707 
 140           280          -15.40627      1.982278      2.060801
 150           280          -14.33074      1.992276      2.092384
 160           280          -13.61348      2.000423      2.118048
 170           280          -13.20086      2.00574       2.13476 
 180           280          -13.06604      2.007586      2.140557
 0             290          -7.178409      1.600273      2.140557
 10            290          -7.318543      1.59311       2.118048
 20            290          -7.746491      1.572476      2.052921
 30            290          -8.487237      1.540833      1.952215
 40            290          -9.591634      1.50197       1.827106
 50            290          -11.15678      1.460554      1.691989
 60            290          -13.3777       1.421582      1.563084
 70            290          -16.70788      1.389772      1.456557
 80            290          -22.61629      1.368991      1.386304
 90            290          -999           1.36177       1.36177 
 100           290          -22.61629      1.368991      1.386304
 110           290          -16.70788      1.389772      1.456557
 120           290          -13.3777       1.421582      1.563084
 130           290          -11.15678      1.460554      1.691989
 140           290          -9.591634      1.50197       1.827106
 150           290          -8.487237      1.540833      1.952215
 160           290          -7.746491      1.572476      2.052921
 170           290          -7.318543      1.59311       2.118048
 180           290          -7.178409      1.600273      2.140557
 0             300          -3.880043      .89117        2.140557
 10            300          -4.028324      .875859       2.092384
 20            300          -4.479767      .831729       1.952215
 30            300          -5.256614      .763986       1.733086
 40            300          -6.405465      .680668       1.456557
 50            300          -8.018127      .591736       1.15211 
 60            300          -10.2839       .507913       .855534 
 70            300          -13.65078      .439397       .605522 
 80            300          -19.58322      .394587       .438021 
 90            300          -999           .379008       .379008 
 100           300          -19.58322      .394587       .438021 
 110           300          -13.65078      .439397       .605522 
 120           300          -10.2839       .507913       .855534 
 130           300          -8.018127      .591736       1.15211 
 140           300          -6.405465      .680668       1.456557
 150           300          -5.256614      .763986       1.733086
 160           300          -4.479767      .831729       1.952215
 170           300          -4.028324      .875859       2.092384
 180           300          -3.880043      .89117        2.140557
 0             310          -1.698093     -.174364       2.140557
 10            310          -1.856372     -.199672       2.060801
 20            310          -2.336681     -.272667       1.827106
 30            310          -3.157982     -.384865       1.456557
 40            310          -4.361749     -.523099       .978863 
 50            310          -6.033326     -.670946       .438021 
 60            310          -8.354913     -.810584      -.106429 
 70            310          -11.76763     -.924931      -.581203 
 80            310          -17.73014     -.999818      -.908579 
 90            310          -999          -1.025873     -1.025873
 100           310          -17.73014     -.999818      -.908579 
 110           310          -11.76763     -.924931      -.581203 
 120           310          -8.354913     -.810584      -.106429 
 130           310          -6.033326     -.670946       .438021 
 140           310          -4.361749     -.523099       .978863 
 150           310          -3.157982     -.384865       1.456557
 160           310          -2.336681     -.272667       1.827106
 170           310          -1.856372     -.199672       2.060801
 180           310          -1.698093     -.174364       2.140557
 0             320          -.174364      -1.698093      2.140557
 10            320          -.343285      -1.734044      2.02707 
 20            320          -.854367      -1.837812      1.691989
 30            320          -1.723185     -1.997527      1.15211 
 40            320          -2.985867     -2.194676      .438021 
 50            320          -4.720916     -2.405996     -.400708 
 60            320          -7.1029       -2.60603      -1.286415
 70            320          -10.5654      -2.770166     -2.102656
 80            320          -16.56069     -2.877824     -2.695703
 90            320          -999          -2.915311     -2.915311
 100           320          -16.56069     -2.877824     -2.695703
 110           320          -10.5654      -2.770166     -2.102656
 120           320          -7.1029       -2.60603      -1.286415
 130           320          -4.720916     -2.405996     -.400708 
 140           320          -2.985867     -2.194676      .438021 
 150           320          -1.723185     -1.997527      1.15211 
 160           320          -.854367      -1.837812      1.691989
 170           320          -.343285      -1.734044      2.02707 
 180           320          -.174364      -1.698093      2.140557
 0             330           .89117       -3.880043      2.140557
 10            330           .712243      -3.925999      1.995257
 20            330           .172194      -4.058734      1.563084
 30            330          -.741474      -4.263299      .855534 
 40            330          -2.059971     -4.516263     -.106429 
 50            330          -3.855417     -4.787979     -1.286415
 60            330          -6.29513      -5.045743     -2.615362
 70            330          -9.805418     -5.257664     -3.951325
 80            330          -15.83226     -5.396873     -5.020772
 90            330          -999          -5.445387     -5.445387
 100           330          -15.83226     -5.396873     -5.020772
 110           330          -9.805418     -5.257664     -3.951325
 120           330          -6.29513      -5.045743     -2.615362
 130           330          -3.855417     -4.787979     -1.286415
 140           330          -2.059971     -4.516263     -.106429 
 150           330          -.741474      -4.263299      .855534 
 160           330           .172194      -4.058734      1.563084
 170           330           .712243      -3.925999      1.995257
 180           330           .89117       -3.880043      2.140557
 0             340           1.600273     -7.178409      2.140557
 10            340           1.413188     -7.232523      1.969239
 20            340           .849488      -7.388911      1.456557
 30            340          -.100886      -7.630182      .605522 
 40            340          -1.465215     -7.928977     -.581203 
 50            340          -3.310449     -8.250482     -2.102656
 60            340          -5.797948     -8.556031     -3.951325
 70            340          -9.34794      -8.807656     -6.059102
 80            340          -15.40107     -8.973157     -8.08252 
 90            340          -999          -9.030872     -9.030872
 100           340          -15.40107     -8.973157     -8.08252 
 110           340          -9.34794      -8.807656     -6.059102
 120           340          -5.797948     -8.556031     -3.951325
 130           340          -3.310449     -8.250482     -2.102656
 140           340          -1.465215     -7.928977     -.581203 
 150           340          -.100886      -7.630182      .605522 
 160           340           .849488      -7.388911      1.456557
 170           340           1.413188     -7.232523      1.969239
 180           340           1.600273     -7.178409      2.140557
 0             350           2.007586     -13.06604      2.140557
 10            350           1.815175     -13.12548      1.952215
 20            350           1.23602      -13.29732      1.386304
 30            350           .261616      -13.56262      .438021 
 40            350          -1.132789     -13.89149     -.908579 
 50            350          -3.010795     -14.24577     -2.695703
 60            350          -5.529844     -14.58287     -5.020772
 70            350          -9.106127     -14.86079     -8.08252 
 80            350          -15.17671     -15.04373     -12.09941
 90            350          -999          -15.10756     -15.10756
 100           350          -15.17671     -15.04373     -12.09941
 110           350          -9.106127     -14.86079     -8.08252 
 120           350          -5.529844     -14.58287     -5.020772
 130           350          -3.010795     -14.24577     -2.695703
 140           350          -1.132789     -13.89149     -.908579 
 150           350           .261616      -13.56262      .438021 
 160           350           1.23602      -13.29732      1.386304
 170           350           1.815175     -13.12548      1.952215
 180           350           2.007586     -13.06604      2.140557
 0             360           2.140557     -999           2.140557
 10            360           1.946296     -999           1.946296
 20            360           1.36177      -999           1.36177 
 30            360           .379008      -999           .379008 
 40            360          -1.025873     -999          -1.025873
 50            360          -2.915311     -999          -2.915311
 60            360          -5.445387     -999          -5.445387
 70            360          -9.030872     -999          -9.030872
 80            360          -15.10756     -999          -15.10756
 90            360          -999          -999          -999     
 100           360          -15.10756     -999          -15.10756
 110           360          -9.030872     -999          -9.030872
 120           360          -5.445387     -999          -5.445387
 130           360          -2.915311     -999          -2.915311
 140           360          -1.025873     -999          -1.025873
 150           360           .379008      -999           .379008 
 160           360           1.36177      -999           1.36177 
 170           360           1.946296     -999           1.946296
 180           360           2.140557     -999           2.140557