                   ****************************************
                     MINI-NUMERICAL ELECTROMAGNETICS CODE
                                   MININEC
                   ****************************************

FREQUENCY (MHZ): 7
    WAVE LENGTH =  42.82857  METERS

ENVIRONMENT (+1 FOR FREE SPACE, -1 FOR GROUND PLANE): +1

NO. OF GEO-OBJECTS: 1

WIRE NO. 1
            COORDINATES                                 END         NO. OF
   X             Y             Z          RADIUS     CONNECTION     SEGMENTS
 0             0             0                          0
 21.41428      0             0             .01          0             10

                  **** ANTENNA GEOMETRY ****

WIRE NO.  1 COORDINATES                                 CONNECTION PULSE
X             Y             Z             RADIUS        END1 END2  NO.
 2.141428      0             0             .01           0    1   1
 4.282857      0             0             .01           1    1   2
 6.424285      0             0             .01           1    1   3
 8.565714      0             0             .01           1    1   4
 10.70714      0             0             .01           1    1   5
 12.84857      0             0             .01           1    1   6
 14.99         0             0             .01           1    1   7
 17.13143      0             0             .01           1    1   8
 19.27286      0             0             .01           1    0   9

NO. OF SOURCES :  1
PULSE NO., VOLTAGE MAGNITUDE, PHASE (DEGREES):  5 , 1 , 0
NUMBER OF LOADS 0

********************    SOURCE DATA     ********************
PULSE  5      VOLTAGE = ( 1 , 0 J)
              CURRENT = ( 1.006964E-02 , -5.166080E-03 J)
              IMPEDANCE = ( 78.61622 ,  40.33289 J)
              POWER =  5.034821E-03  WATTS

********************    CURRENT DATA    ********************

WIRE NO.  1 :
PULSE         REAL          IMAGINARY     MAGNITUDE     PHASE
 NO.          (AMPS)        (AMPS)        (AMPS)        (DEGREES)
E              0             0             0             0
 1             3.333007E-03 -2.117273E-03  3.948643E-03 -32.42551 
 2             6.098124E-03 -3.746618E-03  7.157113E-03 -31.56609 
 3             8.241238E-03 -4.862084E-03  9.568588E-03 -30.53934 
 4             9.602605E-03 -5.369345E-03  1.100181E-02 -29.21196 
 5             1.006964E-02 -5.166080E-03  1.131751E-02 -27.15942 
 6             9.602605E-03 -5.369345E-03  1.100181E-02 -29.21196 
 7             8.241238E-03 -4.862084E-03  9.568588E-03 -30.53934 
 8             6.098124E-03 -3.746618E-03  7.157113E-03 -31.56609 
 9             3.333007E-03 -2.117273E-03  3.948643E-03 -32.42551 
E              0             0             0             0

********************     FAR FIELD      ********************

ZENITH ANGLE : INITIAL,INCREMENT,NUMBER: 0 , 10 , 19
AZIMUTH ANGLE: INITIAL,INCREMENT,NUMBER: 0 , 10 , 37

********************    PATTERN DATA    ********************
ZENITH        AZIMUTH       VERTICAL      HORIZONTAL    TOTAL
 ANGLE         ANGLE        PATTERN (DB)  PATTERN (DB)  PATTERN (DB)
 0             0             2.140504     -999           2.140504
 10            0             1.946242     -999           1.946242
 20            0             1.361716     -999           1.361716
 30            0             .378955      -999           .378955 
 40            0            -1.025927     -999          -1.025927
 50            0            -2.915365     -999          -2.915365
 60            0            -5.44544      -999          -5.44544 
 70            0            -9.030925     -999          -9.030925
 80            0            -15.10762     -999          -15.10762
 90            0            -999          -999          -999     
 100           0            -15.10762     -999          -15.10762
 110           0            -9.030925     -999          -9.030925
 120           0            -5.44544      -999          -5.44544 
 130           0            -2.915365     -999          -2.915365
 140           0            -1.025927     -999          -1.025927
 150           0             .378955      -999           .378955 
 160           0             1.361716     -999           1.361716
 170           0             1.946242     -999           1.946242
 180           0             2.140504     -999           2.140504
 0             10            2.007533     -13.06609      2.140504
 10            10            1.815122     -13.12553      1.952162
 20            10            1.235966     -13.29737      1.386251
 30            10            .261563      -13.56267      .437968 
 40            10           -1.132842     -13.89155     -.908632 
 50            10           -3.010848     -14.24582     -2.695756
 60            10           -5.529898     -14.58292     -5.020825
 70            10           -9.106181     -14.86084     -8.082573
 80            10           -15.17676     -15.04379     -12.09946
 90            10           -999          -15.10762     -15.10762
 100           10           -15.17676     -15.04379     -12.09946
 110           10           -9.106181     -14.86084     -8.082573
 120           10           -5.529898     -14.58292     -5.020825
 130           10           -3.010848     -14.24582     -2.695756
 140           10           -1.132842     -13.89155     -.908632 
 150           10            .261563      -13.56267      .437968 
 160           10            1.235966     -13.29737      1.386251
 170           10            1.815122     -13.12553      1.952162
 180           10            2.007533     -13.06609      2.140504
 0             20            1.60022      -7.178463      2.140504
 10            20            1.413135     -7.232577      1.969185
 20            20            .849435      -7.388964      1.456503
 30            20           -.10094       -7.630235      .605468 
 40            20           -1.465268     -7.92903      -.581257 
 50            20           -3.310503     -8.250535     -2.102709
 60            20           -5.798001     -8.556084     -3.951378
 70            20           -9.347993     -8.80771      -6.059155
 80            20           -15.40112     -8.97321      -8.082573
 90            20           -999          -9.030925     -9.030925
 100           20           -15.40112     -8.97321      -8.082573
 110           20           -9.347993     -8.80771      -6.059155
 120           20           -5.798001     -8.556084     -3.951378
 130           20           -3.310503     -8.250535     -2.102709
 140           20           -1.465268     -7.92903      -.581257 
 150           20           -.10094       -7.630235      .605468 
 160           20            .849435      -7.388964      1.456503
 170           20            1.413135     -7.232577      1.969185
 180           20            1.60022      -7.178463      2.140504
 0             30            .891116      -3.880096      2.140504
 10            30            .71219       -3.926052      1.995204
 20            30            .172141      -4.058788      1.56303 
 30            30           -.741527      -4.263353      .855481 
 40            30           -2.060024     -4.516316     -.106482 
 50            30           -3.85547      -4.788033     -1.286468
 60            30           -6.295183     -5.045796     -2.615415
 70            30           -9.805471     -5.257718     -3.951378
 80            30           -15.83231     -5.396927     -5.020825
 90            30           -999          -5.44544      -5.44544 
 100           30           -15.83231     -5.396927     -5.020825
 110           30           -9.805471     -5.257718     -3.951378
 120           30           -6.295183     -5.045796     -2.615415
 130           30           -3.85547      -4.788033     -1.286468
 140           30           -2.060024     -4.516316     -.106482 
 150           30           -.741527      -4.263353      .855481 
 160           30            .172141      -4.058788      1.56303 
 170           30            .71219       -3.926052      1.995204
 180           30            .891116      -3.880096      2.140504
 0             40           -.174417      -1.698146      2.140504
 10            40           -.343339      -1.734097      2.027017
 20            40           -.85442       -1.837866      1.691935
 30            40           -1.723238     -1.99758       1.152057
 40            40           -2.98592      -2.194729      .437968 
 50            40           -4.72097      -2.406049     -.400761 
 60            40           -7.102953     -2.606083     -1.286468
 70            40           -10.56546     -2.770219     -2.102709
 80            40           -16.56074     -2.877877     -2.695756
 90            40           -999          -2.915365     -2.915365
 100           40           -16.56074     -2.877877     -2.695756
 110           40           -10.56546     -2.770219     -2.102709
 120           40           -7.102953     -2.606083     -1.286468
 130           40           -4.72097      -2.406049     -.400761 
 140           40           -2.98592      -2.194729      .437968 
 150           40           -1.723238     -1.99758       1.152057
 160           40           -.85442       -1.837866      1.691935
 170           40           -.343339      -1.734097      2.027017
 180           40           -.174417      -1.698146      2.140504
 0             50           -1.698146     -.174417       2.140504
 10            50           -1.856425     -.199725       2.060748
 20            50           -2.336734     -.272721       1.827053
 30            50           -3.158035     -.384918       1.456503
 40            50           -4.361803     -.523153       .97881  
 50            50           -6.033379     -.671          .437968 
 60            50           -8.354966     -.810637      -.106482 
 70            50           -11.76768     -.924985      -.581257 
 80            50           -17.7302      -.999872      -.908632 
 90            50           -999          -1.025927     -1.025927
 100           50           -17.7302      -.999872      -.908632 
 110           50           -11.76768     -.924985      -.581257 
 120           50           -8.354966     -.810637      -.106482 
 130           50           -6.033379     -.671          .437968 
 140           50           -4.361803     -.523153       .97881  
 150           50           -3.158035     -.384918       1.456503
 160           50           -2.336734     -.272721       1.827053
 170           50           -1.856425     -.199725       2.060748
 180           50           -1.698146     -.174417       2.140504
 0             60           -3.880096      .891116       2.140504
 10            60           -4.028377      .875806       2.09233 
 20            60           -4.47982       .831676       1.952162
 30            60           -5.256667      .763933       1.733033
 40            60           -6.405518      .680615       1.456503
 50            60           -8.01818       .591683       1.152057
 60            60           -10.28395      .50786        .855481 
 70            60           -13.65083      .439344       .605468 
 80            60           -19.58327      .394534       .437968 
 90            60           -999           .378955       .378955 
 100           60           -19.58327      .394534       .437968 
 110           60           -13.65083      .439344       .605468 
 120           60           -10.28395      .50786        .855481 
 130           60           -8.01818       .591683       1.152057
 140           60           -6.405518      .680615       1.456503
 150           60           -5.256667      .763933       1.733033
 160           60           -4.47982       .831676       1.952162
 170           60           -4.028377      .875806       2.09233 
 180           60           -3.880096      .891116       2.140504
 0             70           -7.178463      1.60022       2.140504
 10            70           -7.318596      1.593057      2.117995
 20            70           -7.746544      1.572422      2.052868
 30            70           -8.48729       1.54078       1.952162
 40            70           -9.591687      1.501916      1.827053
 50            70           -11.15683      1.460501      1.691935
 60            70           -13.37775      1.421529      1.56303 
 70            70           -16.70793      1.389719      1.456503
 80            70           -22.61634      1.368937      1.386251
 90            70           -999           1.361716      1.361716
 100           70           -22.61634      1.368937      1.386251
 110           70           -16.70793      1.389719      1.456503
 120           70           -13.37775      1.421529      1.56303 
 130           70           -11.15683      1.460501      1.691935
 140           70           -9.591687      1.501916      1.827053
 150           70           -8.48729       1.54078       1.952162
 160           70           -7.746544      1.572422      2.052868
 170           70           -7.318596      1.593057      2.117995
 180           70           -7.178463      1.60022       2.140504
 0             80           -13.06609      2.007533      2.140504
 10            80           -13.20091      2.005687      2.134707
 20            80           -13.61354      2.00037       2.117995
 30            80           -14.33079      1.992223      2.09233 
 40            80           -15.40632      1.982225      2.060748
 50            80           -16.94069      1.971582      2.027017
 60            80           -19.13265      1.961577      1.995204
 70            80           -22.43917      1.953419      1.969185
 80            80           -28.33213      1.948092      1.952162
 90            80           -999           1.946242      1.946242
 100           80           -28.33213      1.948092      1.952162
 110           80           -22.43917      1.953419      1.969185
 120           80           -19.13265      1.961577      1.995204
 130           80           -16.94069      1.971582      2.027017
 140           80           -15.40632      1.982225      2.060748
 150           80           -14.33079      1.992223      2.09233 
 160           80           -13.61354      2.00037       2.117995
 170           80           -13.20091      2.005687      2.134707
 180           80           -13.06609      2.007533      2.140504
 0             90           -999           2.140504      2.140504
 10            90           -999           2.140504      2.140504
 20            90           -999           2.140504      2.140504
 30            90           -999           2.140504      2.140504
 40            90           -999           2.140504      2.140504
 50            90           -999           2.140504      2.140504
 60            90           -999           2.140504      2.140504
 70            90           -999           2.140504      2.140504
 80            90           -999           2.140504      2.140504
 90            90           -999           2.140504      2.140504
 100           90           -999           2.140504      2.140504
 110           90           -999           2.140504      2.140504
 120           90           -999           2.140504      2.140504
 130           90           -999           2.140504      2.140504
 140           90           -999           2.140504      2.140504
 150           90           -999           2.140504      2.140504
 160           90           -999           2.140504      2.140504
 170           90           -999           2.140504      2.140504
 180           90           -999           2.140504      2.140504
 0             100          -13.06609      2.007533      2.140504
 10            100          -13.20091      2.005687      2.134707
 20            100          -13.61354      2.00037       2.117995
 30            100          -14.33079      1.992223      2.09233 
 40            100          -15.40632      1.982225      2.060748
 50            100          -16.94069      1.971582      2.027017
 60            100          -19.13265      1.961577      1.995204
 70            100          -22.43917      1.953419      1.969185
 80            100          -28.33213      1.948092      1.952162
 90            100          -999           1.946242      1.946242
 100           100          -28.33213      1.948092      1.952162
 110           100          -22.43917      1.953419      1.969185
 120           100          -19.13265      1.961577      1.995204
 130           100          -16.94069      1.971582      2.027017
 140           100          -15.40632      1.982225      2.060748
 150           100          -14.33079      1.992223      2.09233 
 160           100          -13.61354      2.00037       2.117995
 170           100          -13.20091      2.005687      2.134707
 180           100          -13.06609      2.007533      2.140504
 0             110          -7.178463      1.60022       2.140504
 10            110          -7.318596      1.593057      2.117995
 20            110          -7.746544      1.572422      2.052868
 30            110          -8.48729       1.54078       1.952162
 40            110          -9.591687      1.501916      1.827053
 50            110          -11.15683      1.460501      1.691935
 60            110          -13.37775      1.421529      1.56303 
 70            110          -16.70793      1.389719      1.456503
 80            110          -22.61634      1.368937      1.386251
 90            110          -999           1.361716      1.361716
 100           110          -22.61634      1.368937      1.386251
 110           110          -16.70793      1.389719      1.456503
 120           110          -13.37775      1.421529      1.56303 
 130           110          -11.15683      1.460501      1.691935
 140           110          -9.591687      1.501916      1.827053
 150           110          -8.48729       1.54078       1.952162
 160           110          -7.746544      1.572422      2.052868
 170           110          -7.318596      1.593057      2.117995
 180           110          -7.178463      1.60022       2.140504
 0             120          -3.880096      .891116       2.140504
 10            120          -4.028377      .875806       2.09233 
 20            120          -4.47982       .831676       1.952162
 30            120          -5.256667      .763933       1.733033
 40            120          -6.405518      .680615       1.456503
 50            120          -8.01818       .591683       1.152057
 60            120          -10.28395      .50786        .855481 
 70            120          -13.65083      .439344       .605468 
 80            120          -19.58327      .394534       .437968 
 90            120          -999           .378955       .378955 
 100           120          -19.58327      .394534       .437968 
 110           120          -13.65083      .439344       .605468 
 120           120          -10.28395      .50786        .855481 
 130           120          -8.01818       .591683       1.152057
 140           120          -6.405518      .680615       1.456503
 150           120          -5.256667      .763933       1.733033
 160           120          -4.47982       .831676       1.952162
 170           120          -4.028377      .875806       2.09233 
 180           120          -3.880096      .891116       2.140504
 0             130          -1.698146     -.174417       2.140504
 10            130          -1.856425     -.199725       2.060748
 20            130          -2.336734     -.272721       1.827053
 30            130          -3.158035     -.384918       1.456503
 40            130          -4.361803     -.523153       .97881  
 50            130          -6.033379     -.671          .437968 
 60            130          -8.354966     -.810637      -.106482 
 70            130          -11.76768     -.924985      -.581257 
 80            130          -17.7302      -.999872      -.908632 
 90            130          -999          -1.025927     -1.025927
 100           130          -17.7302      -.999872      -.908632 
 110           130          -11.76768     -.924985      -.581257 
 120           130          -8.354966     -.810637      -.106482 
 130           130          -6.033379     -.671          .437968 
 140           130          -4.361803     -.523153       .97881  
 150           130          -3.158035     -.384918       1.456503
 160           130          -2.336734     -.272721       1.827053
 170           130          -1.856425     -.199725       2.060748
 180           130          -1.698146     -.174417       2.140504
 0             140          -.174417      -1.698146      2.140504
 10            140          -.343339      -1.734097      2.027017
 20            140          -.85442       -1.837866      1.691935
 30            140          -1.723238     -1.99758       1.152057
 40            140          -2.98592      -2.194729      .437968 
 50            140          -4.72097      -2.406049     -.400761 
 60            140          -7.102953     -2.606083     -1.286468
 70            140          -10.56546     -2.770219     -2.102709
 80            140          -16.56074     -2.877877     -2.695756
 90            140          -999          -2.915365     -2.915365
 100           140          -16.56074     -2.877877     -2.695756
 110           140          -10.56546     -2.770219     -2.102709
 120           140          -7.102953     -2.606083     -1.286468
 130           140          -4.72097      -2.406049     -.400761 
 140           140          -2.98592      -2.194729      .437968 
 150           140          -1.723238     -1.99758       1.152057
 160           140          -.85442       -1.837866      1.691935
 170           140          -.343339      -1.734097      2.027017
 180           140          -.174417      -1.698146      2.140504
 0             150           .891116      -3.880096      2.140504
 10            150           .71219       -3.926052      1.995204
 20            150           .172141      -4.058788      1.56303 
 30            150          -.741527      -4.263353      .855481 
 40            150          -2.060024     -4.516316     -.106482 
 50            150          -3.85547      -4.788033     -1.286468
 60            150          -6.295183     -5.045796     -2.615415
 70            150          -9.805471     -5.257718     -3.951378
 80            150          -15.83231     -5.396927     -5.020825
 90            150          -999          -5.44544      -5.44544 
 100           150          -15.83231     -5.396927     -5.020825
 110           150          -9.805471     -5.257718     -3.951378
 120           150          -6.295183     -5.045796     -2.615415
 130           150          -3.85547      -4.788033     -1.286468
 140           150          -2.060024     -4.516316     -.106482 
 150           150          -.741527      -4.263353      .855481 
 160           150           .172141      -4.058788      1.56303 
 170           150           .71219       -3.926052      1.995204
 180           150           .891116      -3.880096      2.140504
 0             160           1.60022      -7.178463      2.140504
 10            160           1.413135     -7.232577      1.969185
 20            160           .849435      -7.388964      1.456503
 30            160          -.10094       -7.630235      .605468 
 40            160          -1.465268     -7.92903      -.581257 
 50            160          -3.310503     -8.250535     -2.102709
 60            160          -5.798001     -8.556084     -3.951378
 70            160          -9.347993     -8.80771      -6.059155
 80            160          -15.40112     -8.97321      -8.082573
 90            160          -999          -9.030925     -9.030925
 100           160          -15.40112     -8.97321      -8.082573
 110           160          -9.347993     -8.80771      -6.059155
 120           160          -5.798001     -8.556084     -3.951378
 130           160          -3.310503     -8.250535     -2.102709
 140           160          -1.465268     -7.92903      -.581257 
 150           160          -.10094       -7.630235      .605468 
 160           160           .849435      -7.388964      1.456503
 170           160           1.413135     -7.232577      1.969185
 180           160           1.60022      -7.178463      2.140504
 0             170           2.007533     -13.06609      2.140504
 10            170           1.815122     -13.12553      1.952162
 20            170           1.235966     -13.29737      1.386251
 30            170           .261563      -13.56267      .437968 
 40            170          -1.132842     -13.89155     -.908632 
 50            170          -3.010848     -14.24582     -2.695756
 60            170          -5.529898     -14.58292     -5.020825
 70            170          -9.106181     -14.86084     -8.082573
 80            170          -15.17676     -15.04379     -12.09946
 90            170          -999          -15.10762     -15.10762
 100           170          -15.17676     -15.04379     -12.09946
 110           170          -9.106181     -14.86084     -8.082573
 120           170          -5.529898     -14.58292     -5.020825
 130           170          -3.010848     -14.24582     -2.695756
 140           170          -1.132842     -13.89155     -.908632 
 150           170           .261563      -13.56267      .437968 
 160           170           1.235966     -13.29737      1.386251
 170           170           1.815122     -13.12553      1.952162
 180           170           2.007533     -13.06609      2.140504
 0             180           2.140504     -999           2.140504
 10            180           1.946242     -999           1.946242
 20            180           1.361716     -999           1.361716
 30            180           .378955      -999           .378955 
 40            180          -1.025927     -999          -1.025927
 50            180          -2.915365     -999          -2.915365
 60            180          -5.44544      -999          -5.44544 
 70            180          -9.030925     -999          -9.030925
 80            180          -15.10762     -999          -15.10762
 90            180          -999          -999          -999     
 100           180          -15.10762     -999          -15.10762
 110           180          -9.030925     -999          -9.030925
 120           180          -5.44544      -999          -5.44544 
 130           180          -2.915365     -999          -2.915365
 140           180          -1.025927     -999          -1.025927
 150           180           .378955      -999           .378955 
 160           180           1.361716     -999           1.361716
 170           180           1.946242     -999           1.946242
 180           180           2.140504     -999           2.140504
 0             190           2.007533     -13.06609      2.140504
 10            190           1.815122     -13.12553      1.952162
 20            190           1.235966     -13.29737      1.386251
 30            190           .261563      -13.56267      .437968 
 40            190          -1.132842     -13.89155     -.908632 
 50            190          -3.010848     -14.24582     -2.695756
 60            190          -5.529898     -14.58292     -5.020825
 70            190          -9.106181     -14.86084     -8.082573
 80            190          -15.17676     -15.04379     -12.09946
 90            190          -999          -15.10762     -15.10762
 100           190          -15.17676     -15.04379     -12.09946
 110           190          -9.106181     -14.86084     -8.082573
 120           190          -5.529898     -14.58292     -5.020825
 130           190          -3.010848     -14.24582     -2.695756
 140           190          -1.132842     -13.89155     -.908632 
 150           190           .261563      -13.56267      .437968 
 160           190           1.235966     -13.29737      1.386251
 170           190           1.815122     -13.12553      1.952162
 180           190           2.007533     -13.06609      2.140504
 0             200           1.60022      -7.178463      2.140504
 10            200           1.413135     -7.232577      1.969185
 20            200           .849435      -7.388964      1.456503
 30            200          -.10094       -7.630235      .605468 
 40            200          -1.465268     -7.92903      -.581257 
 50            200          -3.310503     -8.250535     -2.102709
 60            200          -5.798001     -8.556084     -3.951378
 70            200          -9.347993     -8.80771      -6.059155
 80            200          -15.40112     -8.97321      -8.082573
 90            200          -999          -9.030925     -9.030925
 100           200          -15.40112     -8.97321      -8.082573
 110           200          -9.347993     -8.80771      -6.059155
 120           200          -5.798001     -8.556084     -3.951378
 130           200          -3.310503     -8.250535     -2.102709
 140           200          -1.465268     -7.92903      -.581257 
 150           200          -.10094       -7.630235      .605468 
 160           200           .849435      -7.388964      1.456503
 170           200           1.413135     -7.232577      1.969185
 180           200           1.60022      -7.178463      2.140504
 0             210           .891116      -3.880096      2.140504
 10            210           .71219       -3.926052      1.995204
 20            210           .172141      -4.058788      1.56303 
 30            210          -.741527      -4.263353      .855481 
 40            210          -2.060024     -4.516316     -.106482 
 50            210          -3.85547      -4.788033     -1.286468
 60            210          -6.295183     -5.045796     -2.615415
 70            210          -9.805471     -5.257718     -3.951378
 80            210          -15.83231     -5.396927     -5.020825
 90            210          -999          -5.44544      -5.44544 
 100           210          -15.83231     -5.396927     -5.020825
 110           210          -9.805471     -5.257718     -3.951378
 120           210          -6.295183     -5.045796     -2.615415
 130           210          -3.85547      -4.788033     -1.286468
 140           210          -2.060024     -4.516316     -.106482 
 150           210          -.741527      -4.263353      .855481 
 160           210           .172141      -4.058788      1.56303 
 170           210           .71219       -3.926052      1.995204
 180           210           .891116      -3.880096      2.140504
 0             220          -.174417      -1.698146      2.140504
 10            220          -.343339      -1.734097      2.027017
 20            220          -.85442       -1.837866      1.691935
 30            220          -1.723238     -1.99758       1.152057
 40            220          -2.98592      -2.194729      .437968 
 50            220          -4.72097      -2.406049     -.400761 
 60            220          -7.102953     -2.606083     -1.286468
 70            220          -10.56546     -2.770219     -2.102709
 80            220          -16.56074     -2.877877     -2.695756
 90            220          -999          -2.915365     -2.915365
 100           220          -16.56074     -2.877877     -2.695756
 110           220          -10.56546     -2.770219     -2.102709
 120           220          -7.102953     -2.606083     -1.286468
 130           220          -4.72097      -2.406049     -.400761 
 140           220          -2.98592      -2.194729      .437968 
 150           220          -1.723238     -1.99758       1.152057
 160           220          -.85442       -1.837866      1.691935
 170           220          -.343339      -1.734097      2.027017
 180           220          -.174417      -1.698146      2.140504
 0             230          -1.698146     -.174417       2.140504
 10            230          -1.856425     -.199725       2.060748
 20            230          -2.336734     -.272721       1.827053
 30            230          -3.158035     -.384918       1.456503
 40            230          -4.361803     -.523153       .97881  
 50            230          -6.033379     -.671          .437968 
 60            230          -8.354966     -.810637      -.106482 
 70            230          -11.76768     -.924985      -.581257 
 80            230          -17.7302      -.999872      -.908632 
 90            230          -999          -1.025927     -1.025927
 100           230          -17.7302      -.999872      -.908632 
 110           230          -11.76768     -.924985      -.581257 
 120           230          -8.354966     -.810637      -.106482 
 130           230          -6.033379     -.671          .437968 
 140           230          -4.361803     -.523153       .97881  
 150           230          -3.158035     -.384918       1.456503
 160           230          -2.336734     -.272721       1.827053
 170           230          -1.856425     -.199725       2.060748
 180           230          -1.698146     -.174417       2.140504
 0             240          -3.880096      .891116       2.140504
 10            240          -4.028377      .875806       2.09233 
 20            240          -4.47982       .831676       1.952162
 30            240          -5.256667      .763933       1.733033
 40            240          -6.405518      .680615       1.456503
 50            240          -8.01818       .591683       1.152057
 60            240          -10.28395      .50786        .855481 
 70            240          -13.65083      .439344       .605468 
 80            240          -19.58327      .394534       .437968 
 90            240          -999           .378955       .378955 
 100           240          -19.58327      .394534       .437968 
 110           240          -13.65083      .439344       .605468 
 120           240          -10.28395      .50786        .855481 
 130           240          -8.01818       .591683       1.152057
 140           240          -6.405518      .680615       1.456503
 150           240          -5.256667      .763933       1.733033
 160           240          -4.47982       .831676       1.952162
 170           240          -4.028377      .875806       2.09233 
 180           240          -3.880096      .891116       2.140504
 0             250          -7.178463      1.60022       2.140504
 10            250          -7.318596      1.593057      2.117995
 20            250          -7.746544      1.572422      2.052868
 30            250          -8.48729       1.54078       1.952162
 40            250          -9.591687      1.501916      1.827053
 50            250          -11.15683      1.460501      1.691935
 60            250          -13.37775      1.421529      1.56303 
 70            250          -16.70793      1.389719      1.456503
 80            250          -22.61634      1.368937      1.386251
 90            250          -999           1.361716      1.361716
 100           250          -22.61634      1.368937      1.386251
 110           250          -16.70793      1.389719      1.456503
 120           250          -13.37775      1.421529      1.56303 
 130           250          -11.15683      1.460501      1.691935
 140           250          -9.591687      1.501916      1.827053
 150           250          -8.48729       1.54078       1.952162
 160           250          -7.746544      1.572422      2.052868
 170           250          -7.318596      1.593057      2.117995
 180           250          -7.178463      1.60022       2.140504
 0             260          -13.06609      2.007533      2.140504
 10            260          -13.20091      2.005687      2.134707
 20            260          -13.61354      2.00037       2.117995
 30            260          -14.33079      1.992223      2.09233 
 40            260          -15.40632      1.982225      2.060748
 50            260          -16.94069      1.971582      2.027017
 60            260          -19.13265      1.961577      1.995204
 70            260          -22.43917      1.953419      1.969185
 80            260          -28.33213      1.948092      1.952162
 90            260          -999           1.946242      1.946242
 100           260          -28.33213      1.948092      1.952162
 110           260          -22.43917      1.953419      1.969185
 120           260          -19.13265      1.961577      1.995204
 130           260          -16.94069      1.971582      2.027017
 140           260          -15.40632      1.982225      2.060748
 150           260          -14.33079      1.992223      2.09233 
 160           260          -13.61354      2.00037       2.117995
 170           260          -13.20091      2.005687      2.134707
 180           260          -13.06609      2.007533      2.140504
 0             270          -999           2.140504      2.140504
 10            270          -999           2.140504      2.140504
 20            270          -999           2.140504      2.140504
 30            270          -999           2.140504      2.140504
 40            270          -999           2.140504      2.140504
 50            270          -999           2.140504      2.140504
 60            270          -999           2.140504      2.140504
 70            270          -999           2.140504      2.140504
 80            270          -999           2.140504      2.140504
 90            270          -999           2.140504      2.140504
 100           270          -999           2.140504      2.140504
 110           270          -999           2.140504      2.140504
 120           270          -999           2.140504      2.140504
 130           270          -999           2.140504      2.140504
 140           270          -999           2.140504      2.140504
 150           270          -999           2.140504      2.140504
 160           270          -999           2.140504      2.140504
 170           270          -999           2.140504      2.140504
 180           270          -999           2.140504      2.140504
 0             280          -13.06609      2.007533      2.140504
 10            280          -13.20091      2.005687      2.134707
 20            280          -13.61354      2.00037       2.117995
 30            280          -14.33079      1.992223      2.09233 
 40            280          -15.40632      1.982225      2.060748
 50            280          -16.94069      1.971582      2.027017
 60            280          -19.13265      1.961577      1.995204
 70            280          -22.43917      1.953419      1.969185
 80            280          -28.33213      1.948092      1.952162
 90            280          -999           1.946242      1.946242
 100           280          -28.33213      1.948092      1.952162
 110           280          -22.43917      1.953419      1.969185
 120           280          -19.13265      1.961577      1.995204
 130           280          -16.94069      1.971582      2.027017
 140           280          -15.40632      1.982225      2.060748
 150           280          -14.33079      1.992223      2.09233 
 160           280          -13.61354      2.00037       2.117995
 170           280          -13.20091      2.005687      2.134707
 180           280          -13.06609      2.007533      2.140504
 0             290          -7.178463      1.60022       2.140504
 10            290          -7.318596      1.593057      2.117995
 20            290          -7.746544      1.572422      2.052868
 30            290          -8.48729       1.54078       1.952162
 40            290          -9.591687      1.501916      1.827053
 50            290          -11.15683      1.460501      1.691935
 60            290          -13.37775      1.421529      1.56303 
 70            290          -16.70793      1.389719      1.456503
 80            290          -22.61634      1.368937      1.386251
 90            290          -999           1.361716      1.361716
 100           290          -22.61634      1.368937      1.386251
 110           290          -16.70793      1.389719      1.456503
 120           290          -13.37775      1.421529      1.56303 
 130           290          -11.15683      1.460501      1.691935
 140           290          -9.591687      1.501916      1.827053
 150           290          -8.48729       1.54078       1.952162
 160           290          -7.746544      1.572422      2.052868
 170           290          -7.318596      1.593057      2.117995
 180           290          -7.178463      1.60022       2.140504
 0             300          -3.880096      .891116       2.140504
 10            300          -4.028377      .875806       2.09233 
 20            300          -4.47982       .831676       1.952162
 30            300          -5.256667      .763933       1.733033
 40            300          -6.405518      .680615       1.456503
 50            300          -8.01818       .591683       1.152057
 60            300          -10.28395      .50786        .855481 
 70            300          -13.65083      .439344       .605468 
 80            300          -19.58327      .394534       .437968 
 90            300          -999           .378955       .378955 
 100           300          -19.58327      .394534       .437968 
 110           300          -13.65083      .439344       .605468 
 120           300          -10.28395      .50786        .855481 
 130           300          -8.01818       .591683       1.152057
 140           300          -6.405518      .680615       1.456503
 150           300          -5.256667      .763933       1.733033
 160           300          -4.47982       .831676       1.952162
 170           300          -4.028377      .875806       2.09233 
 180           300          -3.880096      .891116       2.140504
 0             310          -1.698146     -.174417       2.140504
 10            310          -1.856425     -.199725       2.060748
 20            310          -2.336734     -.272721       1.827053
 30            310          -3.158035     -.384918       1.456503
 40            310          -4.361803     -.523153       .97881  
 50            310          -6.033379     -.671          .437968 
 60            310          -8.354966     -.810637      -.106482 
 70            310          -11.76768     -.924985      -.581257 
 80            310          -17.7302      -.999872      -.908632 
 90            310          -999          -1.025927     -1.025927
 100           310          -17.7302      -.999872      -.908632 
 110           310          -11.76768     -.924985      -.581257 
 120           310          -8.354966     -.810637      -.106482 
 130           310          -6.033379     -.671          .437968 
 140           310          -4.361803     -.523153       .97881  
 150           310          -3.158035     -.384918       1.456503
 160           310          -2.336734     -.272721       1.827053
 170           310          -1.856425     -.199725       2.060748
 180           310          -1.698146     -.174417       2.140504
 0             320          -.174417      -1.698146      2.140504
 10            320          -.343339      -1.734097      2.027017
 20            320          -.85442       -1.837866      1.691935
 30            320          -1.723238     -1.99758       1.152057
 40            320          -2.98592      -2.194729      .437968 
 50            320          -4.72097      -2.406049     -.400761 
 60            320          -7.102953     -2.606083     -1.286468
 70            320          -10.56546     -2.770219     -2.102709
 80            320          -16.56074     -2.877877     -2.695756
 90            320          -999          -2.915365     -2.915365
 100           320          -16.56074     -2.877877     -2.695756
 110           320          -10.56546     -2.770219     -2.102709
 120           320          -7.102953     -2.606083     -1.286468
 130           320          -4.72097      -2.406049     -.400761 
 140           320          -2.98592      -2.194729      .437968 
 150           320          -1.723238     -1.99758       1.152057
 160           320          -.85442       -1.837866      1.691935
 170           320          -.343339      -1.734097      2.027017
 180           320          -.174417      -1.698146      2.140504
 0             330           .891116      -3.880096      2.140504
 10            330           .71219       -3.926052      1.995204
 20            330           .172141      -4.058788      1.56303 
 30            330          -.741527      -4.263353      .855481 
 40            330          -2.060024     -4.516316     -.106482 
 50            330          -3.85547      -4.788033     -1.286468
 60            330          -6.295183     -5.045796     -2.615415
 70            330          -9.805471     -5.257718     -3.951378
 80            330          -15.83231     -5.396927     -5.020825
 90            330          -999          -5.44544      -5.44544 
 100           330          -15.83231     -5.396927     -5.020825
 110           330          -9.805471     -5.257718     -3.951378
 120           330          -6.295183     -5.045796     -2.615415
 130           330          -3.85547      -4.788033     -1.286468
 140           330          -2.060024     -4.516316     -.106482 
 150           330          -.741527      -4.263353      .855481 
 160           330           .172141      -4.058788      1.56303 
 170           330           .71219       -3.926052      1.995204
 180           330           .891116      -3.880096      2.140504
 0             340           1.60022      -7.178463      2.140504
 10            340           1.413135     -7.232577      1.969185
 20            340           .849435      -7.388964      1.456503
 30            340          -.10094       -7.630235      .605468 
 40            340          -1.465268     -7.92903      -.581257 
 50            340          -3.310503     -8.250535     -2.102709
 60            340          -5.798001     -8.556084     -3.951378
 70            340          -9.347993     -8.80771      -6.059155
 80            340          -15.40112     -8.97321      -8.082573
 90            340          -999          -9.030925     -9.030925
 100           340          -15.40112     -8.97321      -8.082573
 110           340          -9.347993     -8.80771      -6.059155
 120           340          -5.798001     -8.556084     -3.951378
 130           340          -3.310503     -8.250535     -2.102709
 140           340          -1.465268     -7.92903      -.581257 
 150           340          -.10094       -7.630235      .605468 
 160           340           .849435      -7.388964      1.456503
 170           340           1.413135     -7.232577      1.969185
 180           340           1.60022      -7.178463      2.140504
 0             350           2.007533     -13.06609      2.140504
 10            350           1.815122     -13.12553      1.952162
 20            350           1.235966     -13.29737      1.386251
 30            350           .261563      -13.56267      .437968 
 40            350          -1.132842     -13.89155     -.908632 
 50            350          -3.010848     -14.24582     -2.695756
 60            350          -5.529898     -14.58292     -5.020825
 70            350          -9.106181     -14.86084     -8.082573
 80            350          -15.17676     -15.04379     -12.09946
 90            350          -999          -15.10762     -15.10762
 100           350          -15.17676     -15.04379     -12.09946
 110           350          -9.106181     -14.86084     -8.082573
 120           350          -5.529898     -14.58292     -5.020825
 130           350          -3.010848     -14.24582     -2.695756
 140           350          -1.132842     -13.89155     -.908632 
 150           350           .261563      -13.56267      .437968 
 160           350           1.235966     -13.29737      1.386251
 170           350           1.815122     -13.12553      1.952162
 180           350           2.007533     -13.06609      2.140504
 0             360           2.140504     -999           2.140504
 10            360           1.946242     -999           1.946242
 20            360           1.361716     -999           1.361716
 30            360           .378955      -999           .378955 
 40            360          -1.025927     -999          -1.025927
 50            360          -2.915365     -999          -2.915365
 60            360          -5.44544      -999          -5.44544 
 70            360          -9.030925     -999          -9.030925
 80            360          -15.10762     -999          -15.10762
 90            360          -999          -999          -999     
 100           360          -15.10762     -999          -15.10762
 110           360          -9.030925     -999          -9.030925
 120           360          -5.44544      -999          -5.44544 
 130           360          -2.915365     -999          -2.915365
 140           360          -1.025927     -999          -1.025927
 150           360           .378955      -999           .378955 
 160           360           1.361716     -999           1.361716
 170           360           1.946242     -999           1.946242
 180           360           2.140504     -999           2.140504
