                   ****************************************
                     MINI-NUMERICAL ELECTROMAGNETICS CODE
                                   MININEC
                   ****************************************

FREQUENCY (MHZ): 299.8
    WAVE LENGTH =  1  METERS

ENVIRONMENT (+1 FOR FREE SPACE, -1 FOR GROUND PLANE): -1
 NUMBER OF MEDIA (0 FOR PERFECTLY CONDUCTING GROUND):  0

NO. OF WIRES: 2

WIRE NO. 1
            COORDINATES                                 END         NO. OF
   X             Y             Z          RADIUS     CONNECTION     SEGMENTS
 0             0             .5                         0
-.23097       -.09567        .5            .001         0              7

WIRE NO. 2
            COORDINATES                                 END         NO. OF
   X             Y             Z          RADIUS     CONNECTION     SEGMENTS
 0             0             .5                        -1
-.23097        .09567        .5            .001         0              7

                  **** ANTENNA GEOMETRY ****

WIRE NO.  1  COORDINATES                                CONNECTION PULSE
X             Y             Z             RADIUS        END1 END2  NO.
-.010498      -.004348       .5            .001          0    1   1
-.031495      -.013046       .5            .001          1    1   2
-.07349       -.03044        .5            .001          1    1   3
-.157479      -.06523        .5            .001          1    1   4
-.199474      -.082624       .5            .001          1    1   5
-.220471      -.091322       .5            .001          1    0   6

WIRE NO.  2  COORDINATES                                CONNECTION PULSE
X             Y             Z             RADIUS        END1 END2  NO.
 0             0             .5            .001         -1    2   7
-.010498       .004348       .5            .001          2    2   8
-.031495       .013046       .5            .001          2    2   9
-.07349        .03044        .5            .001          2    2  10
-.157479       .06523        .5            .001          2    2  11
-.199474       .082624       .5            .001          2    2  12
-.220471       .091322       .5            .001          2    0  13

NO. OF SOURCES :  1
PULSE NO., VOLTAGE MAGNITUDE, PHASE (DEGREES):  7 , 1 , 0
NUMBER OF LOADS 0

********************    SOURCE DATA     ********************
PULSE  7      VOLTAGE = ( 1 , 0 J)
              CURRENT = ( 5.113082E-03 ,  2.063443E-02 J)
              IMPEDANCE = ( 11.31404 , -45.65913 J)
              POWER =  2.556541E-03  WATTS

********************    CURRENT DATA    ********************

WIRE NO.  1 :
PULSE         REAL          IMAGINARY     MAGNITUDE     PHASE
 NO.          (AMPS)        (AMPS)        (AMPS)        (DEGREES)
J             -5.113082E-03 -2.063443E-02  2.125849E-02 -103.9172 
 1            -5.109514E-03 -2.021240E-02  2.084822E-02 -104.1867 
 2            -5.034517E-03 -1.954073E-02  2.017887E-02 -104.4476 
 3            -4.614627E-03 -1.745094E-02  1.805076E-02 -104.8119 
 4            -2.675084E-03 -9.733710E-03  1.009461E-02 -105.367  
 5            -1.311359E-03 -4.698960E-03  4.878513E-03 -105.5931 
 6            -5.185561E-04 -1.844434E-03  1.915943E-03 -105.7031 
E              0             0             0             0
WIRE NO.  2 :
PULSE         REAL          IMAGINARY     MAGNITUDE     PHASE
 NO.          (AMPS)        (AMPS)        (AMPS)        (DEGREES)
J              5.113082E-03  2.063443E-02  2.125849E-02  76.0828  
 8             5.109514E-03  2.021240E-02  2.084822E-02  75.81335 
 9             5.034517E-03  1.954073E-02  2.017887E-02  75.5524  
 10            4.614627E-03  1.745094E-02  1.805076E-02  75.18806 
 11            2.675084E-03  9.733710E-03  1.009461E-02  74.63298 
 12            1.311359E-03  4.698960E-03  4.878513E-03  74.40694 
 13            5.185561E-04  1.844434E-03  1.915943E-03  74.29686 
E              0             0             0             0

********************     FAR FIELD      ********************

ZENITH ANGLE : INITIAL,INCREMENT,NUMBER: 0 , 10 , 2
AZIMUTH ANGLE: INITIAL,INCREMENT,NUMBER: 0 , 10 , 2

********************    PATTERN DATA    ********************
ZENITH        AZIMUTH       VERTICAL      HORIZONTAL    TOTAL
 ANGLE         ANGLE        PATTERN (DB)  PATTERN (DB)  PATTERN (DB)
 0             0            -999          -999          -999     
 10            0            -999          -18.78446     -18.78446
 0             10           -999          -999          -999     
 10            10           -34.12991     -18.91586     -18.78705
