                   ****************************************
                     MINI-NUMERICAL ELECTROMAGNETICS CODE
                                   MININEC
                   ****************************************

FREQUENCY (MHZ): 299.8
    WAVE LENGTH =  1  METERS

ENVIRONMENT (+1 FOR FREE SPACE, -1 FOR GROUND PLANE): -1
 NUMBER OF MEDIA (0 FOR PERFECTLY CONDUCTING GROUND):  0

NO. OF WIRES: 2

WIRE NO. 1
            COORDINATES                                 END         NO. OF
   X             Y             Z          RADIUS     CONNECTION     SEGMENTS
-.23097       -.09567        .5                         0
 0             0             .5            .001         0             10

WIRE NO. 2
            COORDINATES                                 END         NO. OF
   X             Y             Z          RADIUS     CONNECTION     SEGMENTS
-.23097        .09567        .5                         0
 0             0             .5            .001        -1             10

                  **** ANTENNA GEOMETRY ****

WIRE NO.  1  COORDINATES                                CONNECTION PULSE
X             Y             Z             RADIUS        END1 END2  NO.
-.207873      -.086103       .5            .001          0    1   1
-.184776      -.076536       .5            .001          1    1   2
-.161679      -.066969       .5            .001          1    1   3
-.138582      -.057402       .5            .001          1    1   4
-.115485      -.047835       .5            .001          1    1   5
-.092388      -.038268       .5            .001          1    1   6
-.069291      -.028701       .5            .001          1    1   7
-.046194      -.019134       .5            .001          1    1   8
-.023097      -.009567       .5            .001          1    0   9

WIRE NO.  2  COORDINATES                                CONNECTION PULSE
X             Y             Z             RADIUS        END1 END2  NO.
-.207873       .086103       .5            .001          0    2  10
-.184776       .076536       .5            .001          2    2  11
-.161679       .066969       .5            .001          2    2  12
-.138582       .057402       .5            .001          2    2  13
-.115485       .047835       .5            .001          2    2  14
-.092388       .038268       .5            .001          2    2  15
-.069291       .028701       .5            .001          2    2  16
-.046194       .019134       .5            .001          2    2  17
-.023097       .009567       .5            .001          2    2  18
 0             0             .5            .001          2   -1  19

NO. OF SOURCES :  1
PULSE NO., VOLTAGE MAGNITUDE, PHASE (DEGREES): 19 , 1 , 0
NUMBER OF LOADS 0

********************    SOURCE DATA     ********************
PULSE 19      VOLTAGE = ( 1 , 0 J)
              CURRENT = ( 3.854093E-03 ,  1.770380E-02 J)
              IMPEDANCE = ( 11.74031 , -53.92919 J)
              POWER =  1.927047E-03  WATTS

********************    CURRENT DATA    ********************

WIRE NO.  1 :
PULSE         REAL          IMAGINARY     MAGNITUDE     PHASE
 NO.          (AMPS)        (AMPS)        (AMPS)        (DEGREES)
E              0             0             0             0
 1            -7.698960E-04 -3.099438E-03  3.193628E-03 -103.9499 
 2            -1.399574E-03 -5.687300E-03  5.856977E-03 -103.8251 
 3            -1.963727E-03 -8.056778E-03  8.292642E-03 -103.698  
 4            -2.464462E-03 -1.021384E-02  1.050695E-02 -103.5654 
 5            -2.897410E-03 -1.213883E-02  1.247983E-02 -103.4247 
 6            -3.256713E-03 -1.380657E-02  1.418547E-02 -103.2724 
 7            -3.536722E-03 -1.519407E-02  1.560026E-02 -103.1034 
 8            -3.732713E-03 -1.628602E-02  1.670831E-02 -102.9091 
 9            -3.840954E-03 -1.708426E-02  1.751071E-02 -102.6708 
J             -3.854093E-03 -1.770380E-02  1.811846E-02 -102.2816 
WIRE NO.  2 :
PULSE         REAL          IMAGINARY     MAGNITUDE     PHASE
 NO.          (AMPS)        (AMPS)        (AMPS)        (DEGREES)
E              0             0             0             0
 10            7.698960E-04  3.099438E-03  3.193628E-03  76.05015 
 11            1.399574E-03  5.687300E-03  5.856977E-03  76.17493 
 12            1.963727E-03  8.056778E-03  8.292642E-03  76.30204 
 13            2.464462E-03  1.021384E-02  1.050695E-02  76.43459 
 14            2.897410E-03  1.213883E-02  1.247983E-02  76.57529 
 15            3.256713E-03  1.380657E-02  1.418547E-02  76.7276  
 16            3.536722E-03  1.519407E-02  1.560026E-02  76.89659 
 17            3.732713E-03  1.628602E-02  1.670831E-02  77.09092 
 18            3.840954E-03  1.708426E-02  1.751071E-02  77.32921 
J              3.854093E-03  1.770380E-02  1.811846E-02  77.71841 

********************     FAR FIELD      ********************

ZENITH ANGLE : INITIAL,INCREMENT,NUMBER: 0 , 10 , 2
AZIMUTH ANGLE: INITIAL,INCREMENT,NUMBER: 0 , 10 , 2

********************    PATTERN DATA    ********************
ZENITH        AZIMUTH       VERTICAL      HORIZONTAL    TOTAL
 ANGLE         ANGLE        PATTERN (DB)  PATTERN (DB)  PATTERN (DB)
 0             0            -999          -999          -999     
 10            0            -999          -18.82742     -18.82742
 0             10           -999          -999          -999     
 10            10           -34.16686     -18.95896     -18.82998
