                   ****************************************
                     MINI-NUMERICAL ELECTROMAGNETICS CODE
                                   MININEC
                       2024-04-02              21:12:12
                   ****************************************
 
FREQUENCY (MHZ): 299.8 
    WAVE LENGTH =  1  METERS
 
ENVIRONMENT (+1 FOR FREE SPACE, -1 FOR GROUND PLANE): -1 
 NUMBER OF MEDIA (0 FOR PERFECTLY CONDUCTING GROUND):  0 
 
NO. OF WIRES: 2 
 
WIRE NO. 1 
            COORDINATES                                 END         NO. OF
   X             Y             Z          RADIUS     CONNECTION     SEGMENTS
-.2309699     -9.567086E-02  .5                          0 
 0             0             .5            .001          0             20 
 
WIRE NO. 2 
            COORDINATES                                 END         NO. OF
   X             Y             Z          RADIUS     CONNECTION     SEGMENTS
-.2309699      9.567086E-02  .5                          0 
 0             0             .5            .001         -1             20 
 
                  **** ANTENNA GEOMETRY ****
 
WIRE NO.  1  COORDINATES                                CONNECTION PULSE
X             Y             Z             RADIUS        END1 END2  NO.
-.2194214     -9.088732E-02  .5            .001           0    1    1
-.2078729     -8.610377E-02  .5            .001           1    1    2
-.1963244     -8.132023E-02  .5            .001           1    1    3
-.1847759     -7.653669E-02  .5            .001           1    1    4
-.1732274     -7.175314E-02  .5            .001           1    1    5
-.1616789     -6.696960E-02  .5            .001           1    1    6
-.1501304     -6.218606E-02  .5            .001           1    1    7
-.1385819     -5.740251E-02  .5            .001           1    1    8
-.1270334     -5.261897E-02  .5            .001           1    1    9
-.1154849     -4.783543E-02  .5            .001           1    1   10
-.1039364     -4.305189E-02  .5            .001           1    1   11
-9.238795E-02 -3.826834E-02  .5            .001           1    1   12
-8.083946E-02 -3.348480E-02  .5            .001           1    1   13
-6.929096E-02 -2.870126E-02  .5            .001           1    1   14
-5.774247E-02 -2.391771E-02  .5            .001           1    1   15
-4.619398E-02 -1.913417E-02  .5            .001           1    1   16
-3.464548E-02 -1.435063E-02  .5            .001           1    1   17
-2.309699E-02 -9.567086E-03  .5            .001           1    1   18
-1.154849E-02 -4.783543E-03  .5            .001           1    0   19
 
WIRE NO.  2  COORDINATES                                CONNECTION PULSE
X             Y             Z             RADIUS        END1 END2  NO.
-.2194214      9.088732E-02  .5            .001           0    2   20
-.2078729      8.610377E-02  .5            .001           2    2   21
-.1963244      8.132023E-02  .5            .001           2    2   22
-.1847759      7.653669E-02  .5            .001           2    2   23
-.1732274      7.175314E-02  .5            .001           2    2   24
-.1616789      6.696960E-02  .5            .001           2    2   25
-.1501304      6.218606E-02  .5            .001           2    2   26
-.1385819      5.740251E-02  .5            .001           2    2   27
-.1270334      5.261897E-02  .5            .001           2    2   28
-.1154849      4.783543E-02  .5            .001           2    2   29
-.1039364      4.305189E-02  .5            .001           2    2   30
-9.238795E-02  3.826834E-02  .5            .001           2    2   31
-8.083946E-02  3.348480E-02  .5            .001           2    2   32
-6.929096E-02  2.870126E-02  .5            .001           2    2   33
-5.774247E-02  2.391771E-02  .5            .001           2    2   34
-4.619398E-02  1.913417E-02  .5            .001           2    2   35
-3.464548E-02  1.435063E-02  .5            .001           2    2   36
-2.309699E-02  9.567086E-03  .5            .001           2    2   37
-1.154849E-02  4.783543E-03  .5            .001           2    2   38
 0             0             .5            .001           2   -1   39
 
NO. OF SOURCES :  1 
PULSE NO., VOLTAGE MAGNITUDE, PHASE (DEGREES):  39 , 1 , 0 
NUMBER OF LOADS 0 
 
********************    SOURCE DATA     ********************
PULSE  39     VOLTAGE = ( 1 , 0 J)
              CURRENT = ( 5.727529E-03 , 2.123829E-02 J)
              IMPEDANCE = ( 11.83693 ,-43.89259 J)
              POWER =  2.863765E-03  WATTS
 
********************    CURRENT DATA    ********************
 
WIRE NO.  1 :
PULSE         REAL          IMAGINARY     MAGNITUDE     PHASE
 NO.          (AMPS)        (AMPS)        (AMPS)        (DEGREES)
E              0             0             0             0 
 1            -6.389187E-04 -2.103665E-03  2.198550E-03 -106.8944 
 2            -1.147440E-03 -3.792976E-03  3.962737E-03 -106.8315 
 3            -1.620036E-03 -5.376204E-03  5.614988E-03 -106.7694 
 4            -2.066155E-03 -6.883840E-03  7.187229E-03 -106.7069 
 5            -2.489173E-03 -8.326589E-03  8.690688E-03 -106.6436 
 6            -2.889944E-03 -9.706945E-03  1.012801E-02 -106.5793 
 7            -3.268263E-03 -1.102394E-02  1.149821E-02 -106.5135 
 8            -3.623415E-03 -1.227493E-02  1.279856E-02 -106.446 
 9            -3.954437E-03 -1.345650E-02  1.402551E-02 -106.3764 
 10           -4.260257E-03 -1.456486E-02  1.517514E-02 -106.3043 
 11           -4.539778E-03 -1.559621E-02  1.624350E-02 -106.2293 
 12           -4.791938E-03 -1.654693E-02  1.722683E-02 -106.1508 
 13           -5.015742E-03 -1.741377E-02  1.812172E-02 -106.0682 
 14           -5.210297E-03 -1.819402E-02  1.892537E-02 -105.9803 
 15           -5.374833E-03 -1.888579E-02  1.963573E-02 -105.8862 
 16           -5.508721E-03 -1.948837E-02  2.025198E-02 -105.7838 
 17           -5.611479E-03 -2.000304E-02  2.077524E-02 -105.6705 
 18           -5.682765E-03 -2.043512E-02  2.121056E-02 -105.5406 
 19           -5.722292E-03 -2.079998E-02  2.157276E-02 -105.3821 
J             -5.727529E-03 -2.123829E-02  2.199704E-02 -105.0925 
 
WIRE NO.  2 :
PULSE         REAL          IMAGINARY     MAGNITUDE     PHASE
 NO.          (AMPS)        (AMPS)        (AMPS)        (DEGREES)
E              0             0             0             0 
 20            6.389186E-04  2.103665E-03  2.198550E-03  73.10558 
 21            1.147439E-03  3.792975E-03  3.962736E-03  73.16854 
 22            1.620035E-03  5.376203E-03  5.614987E-03  73.23064 
 23            2.066155E-03  6.883839E-03  7.187227E-03  73.2931 
 24            2.489172E-03  8.326587E-03  8.690687E-03  73.35635 
 25            2.889943E-03  9.706943E-03  1.012801E-02  73.42072 
 26            3.268262E-03  1.102394E-02  1.149820E-02  73.48651 
 27            3.623415E-03  1.227493E-02  1.279856E-02  73.55402 
 28            3.954436E-03  1.345650E-02  1.402551E-02  73.62361 
 29            4.260256E-03  1.456486E-02  1.517514E-02  73.69567 
 30            4.539777E-03  1.559621E-02  1.624350E-02  73.77066 
 31            4.791937E-03  1.654693E-02  1.722682E-02  73.84915 
 32            5.015740E-03  1.741376E-02  1.812172E-02  73.93185 
 33            5.210296E-03  1.819401E-02  1.892536E-02  74.01965 
 34            5.374834E-03  1.888579E-02  1.963573E-02  74.11382 
 35            5.508721E-03  1.948838E-02  2.025198E-02  74.21615 
 36            5.611479E-03  2.000304E-02  2.077524E-02  74.32953 
 37            5.682765E-03  2.043512E-02  2.121056E-02  74.45938 
 38            5.722292E-03  2.079998E-02  2.157276E-02  74.61787 
J              5.727529E-03  2.123829E-02  2.199704E-02  74.90755 
