                   ****************************************
                     MINI-NUMERICAL ELECTROMAGNETICS CODE
                                   MININEC
                       04-02-2024              21:17:16
                   ****************************************
 
FREQUENCY (MHZ): 299.8 
    WAVE LENGTH =  1  METERS
 
ENVIRONMENT (+1 FOR FREE SPACE, -1 FOR GROUND PLANE): -1 
 NUMBER OF MEDIA (0 FOR PERFECTLY CONDUCTING GROUND):  0 
 
NO. OF WIRES: 2 
 
WIRE NO. 1 
            COORDINATES                                 END         NO. OF
   X             Y             Z          RADIUS     CONNECTION     SEGMENTS
-.2309699     -9.567086E-02  .5                          0 
 0             0             .5            .001          0             15 
 
WIRE NO. 2 
            COORDINATES                                 END         NO. OF
   X             Y             Z          RADIUS     CONNECTION     SEGMENTS
-.2309699      9.567086E-02  .5                          0 
 0             0             .5            .001         -1             15 
 
                  **** ANTENNA GEOMETRY ****
 
WIRE NO.  1  COORDINATES                                CONNECTION PULSE
X             Y             Z             RADIUS        END1 END2  NO.
-.2155719     -8.929279E-02  .5            .001           0    1    1
-.2001739     -8.291474E-02  .5            .001           1    1    2
-.1847759     -7.653669E-02  .5            .001           1    1    3
-.1693779     -7.015863E-02  .5            .001           1    1    4
-.1539799     -6.378058E-02  .5            .001           1    1    5
-.1385819     -5.740252E-02  .5            .001           1    1    6
-.1231839     -5.102446E-02  .5            .001           1    1    7
-.1077859     -.0446464      .5            .001           1    1    8
-9.238794E-02 -3.826834E-02  .5            .001           1    1    9
-7.698995E-02 -3.189029E-02  .5            .001           1    1   10
-6.159197E-02 -2.551223E-02  .5            .001           1    1   11
-4.619399E-02 -1.913417E-02  .5            .001           1    1   12
-3.079599E-02 -1.275612E-02  .5            .001           1    1   13
-.015398      -6.378062E-03  .5            .001           1    0   14
 
WIRE NO.  2  COORDINATES                                CONNECTION PULSE
X             Y             Z             RADIUS        END1 END2  NO.
-.2155719      8.929279E-02  .5            .001           0    2   15
-.2001739      8.291474E-02  .5            .001           2    2   16
-.1847759      7.653669E-02  .5            .001           2    2   17
-.1693779      7.015863E-02  .5            .001           2    2   18
-.1539799      6.378058E-02  .5            .001           2    2   19
-.1385819      5.740252E-02  .5            .001           2    2   20
-.1231839      5.102446E-02  .5            .001           2    2   21
-.1077859      .0446464      .5            .001           2    2   22
-9.238794E-02  3.826834E-02  .5            .001           2    2   23
-7.698995E-02  3.189029E-02  .5            .001           2    2   24
-6.159197E-02  2.551223E-02  .5            .001           2    2   25
-4.619399E-02  1.913417E-02  .5            .001           2    2   26
-3.079599E-02  1.275612E-02  .5            .001           2    2   27
-.015398       6.378062E-03  .5            .001           2    2   28
 0             0             .5            .001           2   -1   29
 
NO. OF SOURCES :  1 
PULSE NO., VOLTAGE MAGNITUDE, PHASE (DEGREES):  29 , 1 , 0 
NUMBER OF LOADS 0 
 
********************    SOURCE DATA     ********************
PULSE  29     VOLTAGE = ( 1 , 0 J)
              CURRENT = ( 5.017176E-03 , 1.999288E-02 J)
              IMPEDANCE = ( 11.80825 ,-47.05455 J)
              POWER =  2.508588E-03  WATTS
 
********************    CURRENT DATA    ********************
 
WIRE NO.  1 :
PULSE         REAL          IMAGINARY     MAGNITUDE     PHASE
 NO.          (AMPS)        (AMPS)        (AMPS)        (DEGREES)
E              0             0             0             0 
 1            -7.087151E-04 -2.498036E-03  2.596625E-03 -105.8391 
 2            -1.282993E-03 -4.547411E-03  4.724935E-03 -105.7557 
 3            -1.812274E-03 -6.459228E-03  6.708648E-03 -105.6726 
 4            -2.304881E-03 -8.261768E-03  8.577254E-03 -105.5881 
 5            -2.76231E-03  -9.959537E-03  1.033551E-02 -105.5015 
 6            -3.183576E-03 -1.154839E-02  1.197917E-02 -105.4121 
 7            -3.566763E-03 -1.302096E-02  1.350063E-02 -105.319 
 8            -3.909631E-03 -.0143688      1.489119E-02 -105.2212 
 9            -4.209922E-03 -1.558359E-02  1.614223E-02 -105.1177 
 10           -4.465531E-03 -.0166579      1.724606E-02 -105.0066 
 11           -4.674622E-03 -1.758599E-02  1.819668E-02 -104.8859 
 12           -4.835697E-03 -1.836487E-02  1.899085E-02 -104.7518 
 13           -4.947606E-03 -1.899667E-02  1.963039E-02 -104.5982 
 14           -5.009411E-03 -1.949556E-02  2.012886E-02 -104.4105 
J             -5.017176E-03 -1.999288E-02  .0206128     -104.0874 
 
WIRE NO.  2 :
PULSE         REAL          IMAGINARY     MAGNITUDE     PHASE
 NO.          (AMPS)        (AMPS)        (AMPS)        (DEGREES)
E              0             0             0             0 
 15            7.087161E-04  2.498039E-03  2.596628E-03  74.16088 
 16            1.282994E-03  4.547416E-03  4.724941E-03  74.24427 
 17            1.812275E-03  6.459236E-03  6.708657E-03  74.3274 
 18            2.304882E-03  8.261775E-03  8.577259E-03  74.41188 
 19            2.76231E-03   9.959538E-03  1.033551E-02  74.49848 
 20            3.183578E-03  .0115484      1.197917E-02  74.58792 
 21            3.566765E-03  1.302096E-02  1.350064E-02  74.68103 
 22            3.909634E-03  1.436881E-02  .0148912      74.77877 
 23            4.209923E-03  1.558359E-02  1.614223E-02  74.88236 
 24            4.46553E-03   .0166579      1.724605E-02  74.99339 
 25            4.67462E-03   1.758598E-02  1.819667E-02  75.11413 
 26            4.835693E-03  1.836486E-02  1.899084E-02  75.24816 
 27            4.947604E-03  1.899666E-02  1.963038E-02  75.40185 
 28            5.009407E-03  1.949555E-02  2.012885E-02  75.58952 
J              5.017176E-03  1.999288E-02  .0206128      75.91264 
