                   ****************************************
                     MINI-NUMERICAL ELECTROMAGNETICS CODE
                                   MININEC
                   ****************************************

FREQUENCY (MHZ): 299.8
    WAVE LENGTH =  1  METERS

ENVIRONMENT (+1 FOR FREE SPACE, -1 FOR GROUND PLANE): -1
 NUMBER OF MEDIA (0 FOR PERFECTLY CONDUCTING GROUND):  0

NO. OF WIRES: 2

WIRE NO. 1
            COORDINATES                                 END         NO. OF
   X             Y             Z          RADIUS     CONNECTION     SEGMENTS
-.23097       -.09567        .5                         0
 0             0             .5            .001         0             15

WIRE NO. 2
            COORDINATES                                 END         NO. OF
   X             Y             Z          RADIUS     CONNECTION     SEGMENTS
-.23097        .09567        .5                         0
 0             0             .5            .001        -1             15

                  **** ANTENNA GEOMETRY ****

WIRE NO.  1  COORDINATES                                CONNECTION PULSE
X             Y             Z             RADIUS        END1 END2  NO.
-.215572      -.089292       .5            .001          0    1   1
-.200174      -.082914       .5            .001          1    1   2
-.184776      -.076536       .5            .001          1    1   3
-.169378      -.070158       .5            .001          1    1   4
-.15398       -.06378        .5            .001          1    1   5
-.138582      -.057402       .5            .001          1    1   6
-.123184      -.051024       .5            .001          1    1   7
-.107786      -.044646       .5            .001          1    1   8
-.092388      -.038268       .5            .001          1    1   9
-.07699       -.03189        .5            .001          1    1  10
-.061592      -.025512       .5            .001          1    1  11
-.046194      -.019134       .5            .001          1    1  12
-.030796      -.012756       .5            .001          1    1  13
-.015398      -.006378       .5            .001          1    0  14

WIRE NO.  2  COORDINATES                                CONNECTION PULSE
X             Y             Z             RADIUS        END1 END2  NO.
-.215572       .089292       .5            .001          0    2  15
-.200174       .082914       .5            .001          2    2  16
-.184776       .076536       .5            .001          2    2  17
-.169378       .070158       .5            .001          2    2  18
-.15398        .06378        .5            .001          2    2  19
-.138582       .057402       .5            .001          2    2  20
-.123184       .051024       .5            .001          2    2  21
-.107786       .044646       .5            .001          2    2  22
-.092388       .038268       .5            .001          2    2  23
-.07699        .03189        .5            .001          2    2  24
-.061592       .025512       .5            .001          2    2  25
-.046194       .019134       .5            .001          2    2  26
-.030796       .012756       .5            .001          2    2  27
-.015398       .006378       .5            .001          2    2  28
 0             0             .5            .001          2   -1  29

NO. OF SOURCES :  1
PULSE NO., VOLTAGE MAGNITUDE, PHASE (DEGREES): 29 , 1 , 0
NUMBER OF LOADS 0

********************    SOURCE DATA     ********************
PULSE 29      VOLTAGE = ( 1 , 0 J)
              CURRENT = ( 5.014153E-03 ,  1.998781E-02 J)
              IMPEDANCE = ( 11.80762 , -47.06844 J)
              POWER =  2.507077E-03  WATTS

********************    CURRENT DATA    ********************

WIRE NO.  1 :
PULSE         REAL          IMAGINARY     MAGNITUDE     PHASE
 NO.          (AMPS)        (AMPS)        (AMPS)        (DEGREES)
E              0             0             0             0
 1            -7.082952E-04 -2.497345E-03  2.595846E-03 -105.8344 
 2            -1.282231E-03 -4.546154E-03  4.723519E-03 -105.751  
 3            -1.811195E-03 -6.457447E-03  6.706642E-03 -105.6678 
 4            -2.303506E-03 -8.259490E-03  8.574690E-03 -105.5834 
 5            -2.760658E-03 -9.956792E-03  1.033242E-02 -105.4968 
 6            -3.181670E-03 -1.154522E-02  1.197560E-02 -105.4073 
 7            -3.564625E-03 -1.301739E-02  1.349663E-02 -105.3142 
 8            -3.907284E-03 -1.436488E-02  1.488679E-02 -105.2165 
 9            -4.207392E-03 -1.557935E-02  1.613748E-02 -105.1129 
 10           -4.462847E-03 -1.665341E-02  1.724102E-02 -105.0019 
 11           -4.671810E-03 -1.758128E-02  1.819140E-02 -104.8811 
 12           -4.832785E-03 -1.835999E-02  1.898539E-02 -104.7471 
 13           -4.944625E-03 -1.899166E-02  1.962479E-02 -104.5934 
 14           -5.006390E-03 -1.949049E-02  2.012320E-02 -104.4057 
J             -5.014153E-03 -1.998781E-02  2.060714E-02 -104.0826 
WIRE NO.  2 :
PULSE         REAL          IMAGINARY     MAGNITUDE     PHASE
 NO.          (AMPS)        (AMPS)        (AMPS)        (DEGREES)
E              0             0             0             0
 15            7.082952E-04  2.497345E-03  2.595846E-03  74.16564 
 16            1.282231E-03  4.546154E-03  4.723519E-03  74.24903 
 17            1.811195E-03  6.457447E-03  6.706642E-03  74.33217 
 18            2.303506E-03  8.259490E-03  8.574690E-03  74.41664 
 19            2.760658E-03  9.956792E-03  1.033242E-02  74.50323 
 20            3.181670E-03  1.154522E-02  1.197560E-02  74.59268 
 21            3.564625E-03  1.301739E-02  1.349663E-02  74.68579 
 22            3.907284E-03  1.436488E-02  1.488679E-02  74.78353 
 23            4.207392E-03  1.557935E-02  1.613748E-02  74.88711 
 24            4.462847E-03  1.665341E-02  1.724102E-02  74.99814 
 25            4.671810E-03  1.758128E-02  1.819140E-02  75.11889 
 26            4.832785E-03  1.835999E-02  1.898539E-02  75.25291 
 27            4.944625E-03  1.899166E-02  1.962479E-02  75.40659 
 28            5.006390E-03  1.949049E-02  2.012320E-02  75.59425 
J              5.014153E-03  1.998781E-02  2.060714E-02  75.91736 

********************     FAR FIELD      ********************

ZENITH ANGLE : INITIAL,INCREMENT,NUMBER: 0 , 10 , 2
AZIMUTH ANGLE: INITIAL,INCREMENT,NUMBER: 0 , 10 , 2

********************    PATTERN DATA    ********************
ZENITH        AZIMUTH       VERTICAL      HORIZONTAL    TOTAL
 ANGLE         ANGLE        PATTERN (DB)  PATTERN (DB)  PATTERN (DB)
 0             0            -999          -999          -999     
 10            0            -999          -18.83233     -18.83233
 0             10           -999          -999          -999     
 10            10           -34.17136     -18.96387     -18.83488
