                   ****************************************
                     MINI-NUMERICAL ELECTROMAGNETICS CODE
                                   MININEC
                   ****************************************

FREQUENCY (MHZ): 299.8
    WAVE LENGTH =  1  METERS

ENVIRONMENT (+1 FOR FREE SPACE, -1 FOR GROUND PLANE): -1
 NUMBER OF MEDIA (0 FOR PERFECTLY CONDUCTING GROUND):  0

NO. OF WIRES: 2

WIRE NO. 1
            COORDINATES                                 END         NO. OF
   X             Y             Z          RADIUS     CONNECTION     SEGMENTS
 0             0             .5                         0
-.23097       -.09567        .5            .001         0              7

WIRE NO. 2
            COORDINATES                                 END         NO. OF
   X             Y             Z          RADIUS     CONNECTION     SEGMENTS
 0             0             .5                        -1
-.23097        .09567        .5            .001         0              7

                  **** ANTENNA GEOMETRY ****

WIRE NO.  1  COORDINATES                                CONNECTION PULSE
X             Y             Z             RADIUS        END1 END2  NO.
-.002309      -.000956       .5            .001          0    1   1
-.006929      -.00287        .5            .001          1    1   2
-.016167      -.006696       .5            .001          1    1   3
-.034645      -.01435        .5            .001          1    1   4
-.0716        -.029658       .5            .001          1    1   5
-.145511      -.060272       .5            .001          1    0   6

WIRE NO.  2  COORDINATES                                CONNECTION PULSE
X             Y             Z             RADIUS        END1 END2  NO.
 0             0             .5            .001         -1    2   7
-.002309       .000956       .5            .001          2    2   8
-.006929       .00287        .5            .001          2    2   9
-.016167       .006696       .5            .001          2    2  10
-.034645       .01435        .5            .001          2    2  11
-.0716         .029658       .5            .001          2    2  12
-.145511       .060272       .5            .001          2    0  13

NO. OF SOURCES :  1
PULSE NO., VOLTAGE MAGNITUDE, PHASE (DEGREES):  7 , 1 , 0
NUMBER OF LOADS 0

********************    SOURCE DATA     ********************
PULSE  7      VOLTAGE = ( 1 , 0 J)
              CURRENT = ( 5.646905E-03 ,  2.209406E-02 J)
              IMPEDANCE = ( 10.8587  , -42.48571 J)
              POWER =  2.823452E-03  WATTS

********************    CURRENT DATA    ********************

WIRE NO.  1 :
PULSE         REAL          IMAGINARY     MAGNITUDE     PHASE
 NO.          (AMPS)        (AMPS)        (AMPS)        (DEGREES)
J             -5.646905E-03 -2.209406E-02  2.280428E-02 -104.337  
 1            -5.646309E-03 -2.169360E-02  2.241635E-02 -104.589  
 2            -5.642296E-03 -2.150137E-02  2.222935E-02 -104.7038 
 3            -5.621195E-03 -2.120070E-02  2.193325E-02 -104.8498 
 4            -5.523656E-03 -2.053136E-02  2.126141E-02 -105.058  
 5            -5.100990E-03 -1.855913E-02  1.924738E-02 -105.3683 
 6            -3.336983E-03 -1.175974E-02  1.222403E-02 -105.842  
E              0             0             0             0
WIRE NO.  2 :
PULSE         REAL          IMAGINARY     MAGNITUDE     PHASE
 NO.          (AMPS)        (AMPS)        (AMPS)        (DEGREES)
J              5.646905E-03  2.209406E-02  2.280428E-02  75.663   
 8             5.646309E-03  2.169360E-02  2.241635E-02  75.41101 
 9             5.642296E-03  2.150137E-02  2.222935E-02  75.29622 
 10            5.621195E-03  2.120070E-02  2.193325E-02  75.15018 
 11            5.523656E-03  2.053136E-02  2.126141E-02  74.94197 
 12            5.100990E-03  1.855913E-02  1.924738E-02  74.6317  
 13            3.336983E-03  1.175974E-02  1.222403E-02  74.15801 
E              0             0             0             0

********************     FAR FIELD      ********************

ZENITH ANGLE : INITIAL,INCREMENT,NUMBER: 0 , 10 , 2
AZIMUTH ANGLE: INITIAL,INCREMENT,NUMBER: 0 , 10 , 2

********************    PATTERN DATA    ********************
ZENITH        AZIMUTH       VERTICAL      HORIZONTAL    TOTAL
 ANGLE         ANGLE        PATTERN (DB)  PATTERN (DB)  PATTERN (DB)
 0             0            -999          -999          -999     
 10            0            -999          -18.76316     -18.76316
 0             10           -999          -999          -999     
 10            10           -34.10177     -18.89498     -18.76597
