                   ****************************************
                     MINI-NUMERICAL ELECTROMAGNETICS CODE
                                   MININEC
                       2024-04-02              21:12:19
                   ****************************************
 
FREQUENCY (MHZ): 299.8 
    WAVE LENGTH =  1  METERS
 
ENVIRONMENT (+1 FOR FREE SPACE, -1 FOR GROUND PLANE): -1 
 NUMBER OF MEDIA (0 FOR PERFECTLY CONDUCTING GROUND):  0 
 
NO. OF WIRES: 2 
 
WIRE NO. 1 
            COORDINATES                                 END         NO. OF
   X             Y             Z          RADIUS     CONNECTION     SEGMENTS
-.2309699     -9.567086E-02  .5                          0 
 0             0             .5            .001          0             15 
 
WIRE NO. 2 
            COORDINATES                                 END         NO. OF
   X             Y             Z          RADIUS     CONNECTION     SEGMENTS
-.2309699      9.567086E-02  .5                          0 
 0             0             .5            .001         -1             15 
 
                  **** ANTENNA GEOMETRY ****
 
WIRE NO.  1  COORDINATES                                CONNECTION PULSE
X             Y             Z             RADIUS        END1 END2  NO.
-.2155719     -8.929280E-02  .5            .001           0    1    1
-.2001739     -8.291474E-02  .5            .001           1    1    2
-.1847759     -7.653669E-02  .5            .001           1    1    3
-.1693779     -7.015863E-02  .5            .001           1    1    4
-.1539799     -6.378057E-02  .5            .001           1    1    5
-.1385819     -5.740251E-02  .5            .001           1    1    6
-.1231839     -5.102446E-02  .5            .001           1    1    7
-.1077859     -4.464640E-02  .5            .001           1    1    8
-9.238795E-02 -3.826834E-02  .5            .001           1    1    9
-7.698996E-02 -3.189029E-02  .5            .001           1    1   10
-6.159197E-02 -2.551223E-02  .5            .001           1    1   11
-4.619398E-02 -1.913417E-02  .5            .001           1    1   12
-3.079598E-02 -1.275611E-02  .5            .001           1    1   13
-1.539799E-02 -6.378057E-03  .5            .001           1    0   14
 
WIRE NO.  2  COORDINATES                                CONNECTION PULSE
X             Y             Z             RADIUS        END1 END2  NO.
-.2155719      8.929280E-02  .5            .001           0    2   15
-.2001739      8.291474E-02  .5            .001           2    2   16
-.1847759      7.653669E-02  .5            .001           2    2   17
-.1693779      7.015863E-02  .5            .001           2    2   18
-.1539799      6.378057E-02  .5            .001           2    2   19
-.1385819      5.740251E-02  .5            .001           2    2   20
-.1231839      5.102446E-02  .5            .001           2    2   21
-.1077859      4.464640E-02  .5            .001           2    2   22
-9.238795E-02  3.826834E-02  .5            .001           2    2   23
-7.698996E-02  3.189029E-02  .5            .001           2    2   24
-6.159197E-02  2.551223E-02  .5            .001           2    2   25
-4.619398E-02  1.913417E-02  .5            .001           2    2   26
-3.079598E-02  1.275611E-02  .5            .001           2    2   27
-1.539799E-02  6.378057E-03  .5            .001           2    2   28
 0             0             .5            .001           2   -1   29
 
NO. OF SOURCES :  1 
PULSE NO., VOLTAGE MAGNITUDE, PHASE (DEGREES):  29 , 1 , 0 
NUMBER OF LOADS 0 
 
********************    SOURCE DATA     ********************
PULSE  29     VOLTAGE = ( 1 , 0 J)
              CURRENT = ( 5.014154E-03 , 1.998781E-02 J)
              IMPEDANCE = ( 11.80762 ,-47.06843 J)
              POWER =  2.507077E-03  WATTS
 
********************    CURRENT DATA    ********************
 
WIRE NO.  1 :
PULSE         REAL          IMAGINARY     MAGNITUDE     PHASE
 NO.          (AMPS)        (AMPS)        (AMPS)        (DEGREES)
E              0             0             0             0 
 1            -7.082954E-04 -2.497345E-03  2.595846E-03 -105.8344 
 2            -1.282231E-03 -4.546155E-03  4.723520E-03 -105.751 
 3            -1.811196E-03 -6.457448E-03  6.706643E-03 -105.6678 
 4            -2.303506E-03 -8.259491E-03  8.574691E-03 -105.5834 
 5            -2.760659E-03 -9.956793E-03  1.033242E-02 -105.4968 
 6            -3.181671E-03 -1.154522E-02  1.197560E-02 -105.4073 
 7            -3.564626E-03 -1.301739E-02  1.349663E-02 -105.3142 
 8            -3.907285E-03 -1.436488E-02  1.488679E-02 -105.2165 
 9            -4.207393E-03 -1.557936E-02  1.613749E-02 -105.1129 
 10           -4.462848E-03 -1.665341E-02  1.724103E-02 -105.0019 
 11           -4.671812E-03 -1.758128E-02  1.819141E-02 -104.8811 
 12           -4.832787E-03 -1.835999E-02  1.898539E-02 -104.7471 
 13           -4.944626E-03 -1.899166E-02  1.962479E-02 -104.5934 
 14           -5.006391E-03 -1.949049E-02  2.012320E-02 -104.4057 
J             -5.014154E-03 -1.998781E-02  2.060714E-02 -104.0826 
 
WIRE NO.  2 :
PULSE         REAL          IMAGINARY     MAGNITUDE     PHASE
 NO.          (AMPS)        (AMPS)        (AMPS)        (DEGREES)
E              0             0             0             0 
 15            7.082954E-04  2.497345E-03  2.595846E-03  74.16564 
 16            1.282231E-03  4.546155E-03  4.723520E-03  74.24903 
 17            1.811196E-03  6.457448E-03  6.706643E-03  74.33217 
 18            2.303506E-03  8.259491E-03  8.574691E-03  74.41664 
 19            2.760659E-03  9.956793E-03  1.033242E-02  74.50323 
 20            3.181671E-03  1.154522E-02  1.197560E-02  74.59268 
 21            3.564626E-03  1.301739E-02  1.349663E-02  74.68579 
 22            3.907285E-03  1.436488E-02  1.488679E-02  74.78353 
 23            4.207393E-03  1.557936E-02  1.613749E-02  74.88711 
 24            4.462848E-03  1.665341E-02  1.724103E-02  74.99814 
 25            4.671812E-03  1.758128E-02  1.819141E-02  75.11889 
 26            4.832787E-03  1.835999E-02  1.898539E-02  75.25291 
 27            4.944626E-03  1.899166E-02  1.962479E-02  75.40658 
 28            5.006391E-03  1.949049E-02  2.012320E-02  75.59425 
J              5.014154E-03  1.998781E-02  2.060714E-02  75.91736 
