                   ****************************************
                     MINI-NUMERICAL ELECTROMAGNETICS CODE
                                   MININEC
                   ****************************************

FREQUENCY (MHZ): 299.8
    WAVE LENGTH =  1  METERS

ENVIRONMENT (+1 FOR FREE SPACE, -1 FOR GROUND PLANE): -1
 NUMBER OF MEDIA (0 FOR PERFECTLY CONDUCTING GROUND):  0

NO. OF GEO-OBJECTS: 2

WIRE NO. 1
            COORDINATES                                 END         NO. OF
   X             Y             Z          RADIUS     CONNECTION     SEGMENTS
 0             0             .5                         0
-.23097       -.09567        .5            .001         0              7

WIRE NO. 2
            COORDINATES                                 END         NO. OF
   X             Y             Z          RADIUS     CONNECTION     SEGMENTS
 0             0             .5                        -1
-.23097        .09567        .5            .001         0              7

                  **** ANTENNA GEOMETRY ****

WIRE NO.  1 COORDINATES                                 CONNECTION PULSE
X             Y             Z             RADIUS        END1 END2  NO.
-.004619      -.001913       .5            .001          0    1   1
-.013858      -.00574        .5            .001          1    1   2
-.032335      -.013393       .5            .001          1    1   3
-.069291      -.028701       .5            .001          1    1   4
-.123184      -.051024       .5            .001          1    1   5
-.177077      -.073347       .5            .001          1    0   6

WIRE NO.  2 COORDINATES                                 CONNECTION PULSE
X             Y             Z             RADIUS        END1 END2  NO.
 0             0             .5            .001         -1    2   7
-.004619       .001913       .5            .001          2    2   8
-.013858       .00574        .5            .001          2    2   9
-.032335       .013393       .5            .001          2    2  10
-.069291       .028701       .5            .001          2    2  11
-.123184       .051024       .5            .001          2    2  12
-.177077       .073347       .5            .001          2    0  13

NO. OF SOURCES :  1
PULSE NO., VOLTAGE MAGNITUDE, PHASE (DEGREES):  7 , 1 , 0
NUMBER OF LOADS 0

********************    SOURCE DATA     ********************
PULSE  7      VOLTAGE = ( 1 , 0 J)
              CURRENT = ( 4.845503E-03 ,  2.030630E-02 J)
              IMPEDANCE = ( 11.11801 , -46.59281 J)
              POWER =  2.422751E-03  WATTS

********************    CURRENT DATA    ********************

WIRE NO.  1 :
PULSE         REAL          IMAGINARY     MAGNITUDE     PHASE
 NO.          (AMPS)        (AMPS)        (AMPS)        (DEGREES)
J             -4.845503E-03 -2.030630E-02  2.087642E-02 -103.421  
 1            -4.844416E-03 -1.993796E-02  2.051805E-02 -103.6568 
 2            -4.830727E-03 -1.963732E-02  2.022277E-02 -103.8202 
 3            -4.755553E-03 -1.901560E-02  1.960123E-02 -104.0409 
 4            -4.403706E-03 -1.719648E-02  1.775139E-02 -104.3637 
 5            -3.415237E-03 -1.299169E-02  1.343309E-02 -104.7286 
 6            -1.945901E-03 -7.244033E-03  7.500836E-03 -105.0359 
E              0             0             0             0
WIRE NO.  2 :
PULSE         REAL          IMAGINARY     MAGNITUDE     PHASE
 NO.          (AMPS)        (AMPS)        (AMPS)        (DEGREES)
J              4.845503E-03  2.030630E-02  2.087642E-02  76.57902 
 8             4.844416E-03  1.993796E-02  2.051805E-02  76.34323 
 9             4.830727E-03  1.963732E-02  2.022277E-02  76.17981 
 10            4.755553E-03  1.901560E-02  1.960123E-02  75.95907 
 11            4.403706E-03  1.719648E-02  1.775139E-02  75.63627 
 12            3.415237E-03  1.299169E-02  1.343309E-02  75.2714  
 13            1.945901E-03  7.244033E-03  7.500836E-03  74.96408 
E              0             0             0             0

********************     FAR FIELD      ********************

ZENITH ANGLE : INITIAL,INCREMENT,NUMBER: 0 , 10 , 2
AZIMUTH ANGLE: INITIAL,INCREMENT,NUMBER: 0 , 10 , 2

********************    PATTERN DATA    ********************
ZENITH        AZIMUTH       VERTICAL      HORIZONTAL    TOTAL
 ANGLE         ANGLE        PATTERN (DB)  PATTERN (DB)  PATTERN (DB)
 0             0            -999          -999          -999     
 10            0            -999          -18.79145     -18.79145
 0             10           -999          -999          -999     
 10            10           -34.13161     -18.92307     -18.79411
