                   ****************************************
                     MINI-NUMERICAL ELECTROMAGNETICS CODE
                                   MININEC
                   ****************************************

FREQUENCY (MHZ): 299.8
    WAVE LENGTH =  1  METERS

ENVIRONMENT (+1 FOR FREE SPACE, -1 FOR GROUND PLANE): -1
 NUMBER OF MEDIA (0 FOR PERFECTLY CONDUCTING GROUND):  0

NO. OF GEO-OBJECTS: 2

WIRE NO. 1
            COORDINATES                                 END         NO. OF
   X             Y             Z          RADIUS     CONNECTION     SEGMENTS
-.23097       -.09567        .5                         0
 0             0             .5            .001         0             20

WIRE NO. 2
            COORDINATES                                 END         NO. OF
   X             Y             Z          RADIUS     CONNECTION     SEGMENTS
-.23097        .09567        .5                         0
 0             0             .5            .001        -1             20

                  **** ANTENNA GEOMETRY ****

WIRE NO.  1 COORDINATES                                 CONNECTION PULSE
X             Y             Z             RADIUS        END1 END2  NO.
-.219421      -.090887       .5            .001          0    1   1
-.207873      -.086103       .5            .001          1    1   2
-.196324      -.08132        .5            .001          1    1   3
-.184776      -.076536       .5            .001          1    1   4
-.173227      -.071753       .5            .001          1    1   5
-.161679      -.066969       .5            .001          1    1   6
-.15013       -.062186       .5            .001          1    1   7
-.138582      -.057402       .5            .001          1    1   8
-.127033      -.052619       .5            .001          1    1   9
-.115485      -.047835       .5            .001          1    1  10
-.103936      -.043051       .5            .001          1    1  11
-.092388      -.038268       .5            .001          1    1  12
-.080839      -.033484       .5            .001          1    1  13
-.069291      -.028701       .5            .001          1    1  14
-.057742      -.023917       .5            .001          1    1  15
-.046194      -.019134       .5            .001          1    1  16
-.034645      -.01435        .5            .001          1    1  17
-.023097      -.009567       .5            .001          1    1  18
-.011548      -.004783       .5            .001          1    0  19

WIRE NO.  2 COORDINATES                                 CONNECTION PULSE
X             Y             Z             RADIUS        END1 END2  NO.
-.219421       .090887       .5            .001          0    2  20
-.207873       .086103       .5            .001          2    2  21
-.196324       .08132        .5            .001          2    2  22
-.184776       .076536       .5            .001          2    2  23
-.173227       .071753       .5            .001          2    2  24
-.161679       .066969       .5            .001          2    2  25
-.15013        .062186       .5            .001          2    2  26
-.138582       .057402       .5            .001          2    2  27
-.127033       .052619       .5            .001          2    2  28
-.115485       .047835       .5            .001          2    2  29
-.103936       .043051       .5            .001          2    2  30
-.092388       .038268       .5            .001          2    2  31
-.080839       .033484       .5            .001          2    2  32
-.069291       .028701       .5            .001          2    2  33
-.057742       .023917       .5            .001          2    2  34
-.046194       .019134       .5            .001          2    2  35
-.034645       .01435        .5            .001          2    2  36
-.023097       .009567       .5            .001          2    2  37
-.011548       .004783       .5            .001          2    2  38
 0             0             .5            .001          2   -1  39

NO. OF SOURCES :  1
PULSE NO., VOLTAGE MAGNITUDE, PHASE (DEGREES): 39 , 1 , 0
NUMBER OF LOADS 0

********************    SOURCE DATA     ********************
PULSE 39      VOLTAGE = ( 1 , 0 J)
              CURRENT = ( 5.727519E-03 ,  2.123827E-02 J)
              IMPEDANCE = ( 11.83693 , -43.89264 J)
              POWER =  2.863760E-03  WATTS

********************    CURRENT DATA    ********************

WIRE NO.  1 :
PULSE         REAL          IMAGINARY     MAGNITUDE     PHASE
 NO.          (AMPS)        (AMPS)        (AMPS)        (DEGREES)
E              0             0             0             0
 1            -6.389176E-04 -2.103663E-03  2.198548E-03 -106.8944 
 2            -1.147438E-03 -3.792972E-03  3.962733E-03 -106.8314 
 3            -1.620033E-03 -5.376199E-03  5.614982E-03 -106.7694 
 4            -2.066152E-03 -6.883834E-03  7.187222E-03 -106.7069 
 5            -2.489168E-03 -8.326582E-03  8.690680E-03 -106.6436 
 6            -2.889939E-03 -9.706936E-03  1.012800E-02 -106.5793 
 7            -3.268257E-03 -1.102393E-02  1.149819E-02 -106.5135 
 8            -3.623409E-03 -1.227492E-02  1.279855E-02 -106.446  
 9            -3.954430E-03 -1.345649E-02  1.402550E-02 -106.3764 
 10           -4.260250E-03 -1.456485E-02  1.517513E-02 -106.3043 
 11           -4.539770E-03 -1.559620E-02  1.624349E-02 -106.2293 
 12           -4.791929E-03 -1.654692E-02  1.722681E-02 -106.1508 
 13           -5.015733E-03 -1.741375E-02  1.812171E-02 -106.0681 
 14           -5.210288E-03 -1.819400E-02  1.892535E-02 -105.9803 
 15           -5.374824E-03 -1.888577E-02  1.963571E-02 -105.8862 
 16           -5.508711E-03 -1.948836E-02  2.025196E-02 -105.7838 
 17           -5.611469E-03 -2.000303E-02  2.077522E-02 -105.6705 
 18           -5.682755E-03 -2.043510E-02  2.121054E-02 -105.5406 
 19           -5.722282E-03 -2.079996E-02  2.157274E-02 -105.3821 
J             -5.727519E-03 -2.123827E-02  2.199701E-02 -105.0924 
WIRE NO.  2 :
PULSE         REAL          IMAGINARY     MAGNITUDE     PHASE
 NO.          (AMPS)        (AMPS)        (AMPS)        (DEGREES)
E              0             0             0             0
 20            6.389176E-04  2.103663E-03  2.198548E-03  73.10559 
 21            1.147438E-03  3.792972E-03  3.962733E-03  73.16856 
 22            1.620033E-03  5.376199E-03  5.614982E-03  73.23065 
 23            2.066152E-03  6.883834E-03  7.187222E-03  73.29311 
 24            2.489168E-03  8.326582E-03  8.690680E-03  73.35636 
 25            2.889939E-03  9.706936E-03  1.012800E-02  73.42073 
 26            3.268257E-03  1.102393E-02  1.149819E-02  73.48652 
 27            3.623409E-03  1.227492E-02  1.279855E-02  73.55404 
 28            3.954430E-03  1.345649E-02  1.402550E-02  73.62363 
 29            4.260250E-03  1.456485E-02  1.517513E-02  73.69568 
 30            4.539770E-03  1.559620E-02  1.624349E-02  73.77068 
 31            4.791929E-03  1.654692E-02  1.722681E-02  73.84917 
 32            5.015733E-03  1.741375E-02  1.812171E-02  73.93186 
 33            5.210288E-03  1.819400E-02  1.892535E-02  74.01967 
 34            5.374824E-03  1.888577E-02  1.963571E-02  74.11383 
 35            5.508711E-03  1.948836E-02  2.025196E-02  74.21617 
 36            5.611469E-03  2.000303E-02  2.077522E-02  74.32955 
 37            5.682755E-03  2.043510E-02  2.121054E-02  74.45939 
 38            5.722282E-03  2.079996E-02  2.157274E-02  74.61788 
J              5.727519E-03  2.123827E-02  2.199701E-02  74.90756 

********************     FAR FIELD      ********************

ZENITH ANGLE : INITIAL,INCREMENT,NUMBER: 0 , 10 , 2
AZIMUTH ANGLE: INITIAL,INCREMENT,NUMBER: 0 , 10 , 2

********************    PATTERN DATA    ********************
ZENITH        AZIMUTH       VERTICAL      HORIZONTAL    TOTAL
 ANGLE         ANGLE        PATTERN (DB)  PATTERN (DB)  PATTERN (DB)
 0             0            -999          -999          -999     
 10            0            -999          -18.83456     -18.83456
 0             10           -999          -999          -999     
 10            10           -34.17345     -18.9661      -18.8371 
