                   ****************************************
                     MINI-NUMERICAL ELECTROMAGNETICS CODE
                                   MININEC
                       2024-04-02              21:12:02
                   ****************************************
 
FREQUENCY (MHZ): 299.8 
    WAVE LENGTH =  1  METERS
 
ENVIRONMENT (+1 FOR FREE SPACE, -1 FOR GROUND PLANE): -1 
 NUMBER OF MEDIA (0 FOR PERFECTLY CONDUCTING GROUND):  0 
 
NO. OF WIRES: 2 
 
WIRE NO. 1 
            COORDINATES                                 END         NO. OF
   X             Y             Z          RADIUS     CONNECTION     SEGMENTS
-.2309699     -9.567086E-02  .5                          0 
 0             0             .5            .001          0             25 
 
WIRE NO. 2 
            COORDINATES                                 END         NO. OF
   X             Y             Z          RADIUS     CONNECTION     SEGMENTS
-.2309699      9.567086E-02  .5                          0 
 0             0             .5            .001         -1             25 
 
                  **** ANTENNA GEOMETRY ****
 
WIRE NO.  1  COORDINATES                                CONNECTION PULSE
X             Y             Z             RADIUS        END1 END2  NO.
-.2217311     -9.184402E-02  .5            .001           0    1    1
-.2124923     -8.801719E-02  .5            .001           1    1    2
-.2032535     -8.419036E-02  .5            .001           1    1    3
-.1940147     -8.036352E-02  .5            .001           1    1    4
-.1847759     -7.653669E-02  .5            .001           1    1    5
-.1755371     -7.270985E-02  .5            .001           1    1    6
-.1662983     -6.888302E-02  .5            .001           1    1    7
-.1570595     -6.505618E-02  .5            .001           1    1    8
-.1478207     -6.122935E-02  .5            .001           1    1    9
-.1385819     -5.740251E-02  .5            .001           1    1   10
-.1293431     -5.357568E-02  .5            .001           1    1   11
-.1201043     -4.974885E-02  .5            .001           1    1   12
-.1108655     -4.592201E-02  .5            .001           1    1   13
-.1016267     -4.209518E-02  .5            .001           1    1   14
-9.238795E-02 -3.826834E-02  .5            .001           1    1   15
-8.314916E-02 -3.444151E-02  .5            .001           1    1   16
-7.391036E-02 -3.061467E-02  .5            .001           1    1   17
-6.467157E-02 -2.678784E-02  .5            .001           1    1   18
-5.543277E-02 -2.296101E-02  .5            .001           1    1   19
-4.619398E-02 -1.913417E-02  .5            .001           1    1   20
-3.695518E-02 -1.530734E-02  .5            .001           1    1   21
-2.771639E-02 -1.148050E-02  .5            .001           1    1   22
-1.847759E-02 -7.653669E-03  .5            .001           1    1   23
-9.238795E-03 -3.826834E-03  .5            .001           1    0   24
 
WIRE NO.  2  COORDINATES                                CONNECTION PULSE
X             Y             Z             RADIUS        END1 END2  NO.
-.2217311      9.184402E-02  .5            .001           0    2   25
-.2124923      8.801719E-02  .5            .001           2    2   26
-.2032535      8.419036E-02  .5            .001           2    2   27
-.1940147      8.036352E-02  .5            .001           2    2   28
-.1847759      7.653669E-02  .5            .001           2    2   29
-.1755371      7.270985E-02  .5            .001           2    2   30
-.1662983      6.888302E-02  .5            .001           2    2   31
-.1570595      6.505618E-02  .5            .001           2    2   32
-.1478207      6.122935E-02  .5            .001           2    2   33
-.1385819      5.740251E-02  .5            .001           2    2   34
-.1293431      5.357568E-02  .5            .001           2    2   35
-.1201043      4.974885E-02  .5            .001           2    2   36
-.1108655      4.592201E-02  .5            .001           2    2   37
-.1016267      4.209518E-02  .5            .001           2    2   38
-9.238795E-02  3.826834E-02  .5            .001           2    2   39
-8.314916E-02  3.444151E-02  .5            .001           2    2   40
-7.391036E-02  3.061467E-02  .5            .001           2    2   41
-6.467157E-02  2.678784E-02  .5            .001           2    2   42
-5.543277E-02  2.296101E-02  .5            .001           2    2   43
-4.619398E-02  1.913417E-02  .5            .001           2    2   44
-3.695518E-02  1.530734E-02  .5            .001           2    2   45
-2.771639E-02  1.148050E-02  .5            .001           2    2   46
-1.847759E-02  7.653669E-03  .5            .001           2    2   47
-9.238795E-03  3.826834E-03  .5            .001           2    2   48
 0             0             .5            .001           2   -1   49
 
NO. OF SOURCES :  1 
PULSE NO., VOLTAGE MAGNITUDE, PHASE (DEGREES):  49 , 1 , 0 
NUMBER OF LOADS 0 
 
********************    SOURCE DATA     ********************
PULSE  49     VOLTAGE = ( 1 , 0 J)
              CURRENT = ( 6.193381E-03 , 2.200594E-02 J)
              IMPEDANCE = ( 11.85065 ,-42.10701 J)
              POWER =  3.096691E-03  WATTS
 
********************    CURRENT DATA    ********************
 
WIRE NO.  1 :
PULSE         REAL          IMAGINARY     MAGNITUDE     PHASE
 NO.          (AMPS)        (AMPS)        (AMPS)        (DEGREES)
E              0             0             0             0 
 1            -5.787873E-04 -1.829406E-03  1.918781E-03 -107.5563 
 2            -1.030435E-03 -3.267016E-03  3.425666E-03 -107.5056 
 3            -1.451605E-03 -4.616290E-03  4.839142E-03 -107.4559 
 4            -1.851402E-03 -5.905594E-03  6.189000E-03 -107.4062 
 5            -2.233815E-03 -7.147268E-03  7.488215E-03 -107.3562 
 6            -2.600408E-03 -8.346066E-03  8.741793E-03 -107.3056 
 7            -2.951711E-03 -9.503492E-03  9.951329E-03 -107.2544 
 8            -3.287722E-03 -1.061939E-02  1.111668E-02 -107.2023 
 9            -3.608155E-03 -1.169271E-02  1.223676E-02 -107.1493 
 10           -3.912554E-03 -1.272187E-02  1.330993E-02 -107.095 
 11           -4.200376E-03 -1.370501E-02  1.433424E-02 -107.0395 
 12           -4.471029E-03 -1.464014E-02  1.530764E-02 -106.9824 
 13           -4.723906E-03 -1.552523E-02  1.622800E-02 -106.9236 
 14           -4.958407E-03 -1.635828E-02  1.709325E-02 -106.8627 
 15           -5.173953E-03 -1.713744E-02  1.790144E-02 -106.7996 
 16           -5.370002E-03 -1.786099E-02  1.865079E-02 -106.7337 
 17           -5.546056E-03 -1.852747E-02  1.933975E-02 -106.6647 
 18           -5.701671E-03 -1.913573E-02  1.996711E-02 -106.5919 
 19           -5.836463E-03 -1.968503E-02  2.053205E-02 -106.5147 
 20           -5.950116E-03 -2.017524E-02  2.103435E-02 -106.4319 
 21           -6.042387E-03 -2.060713E-02  2.147473E-02 -106.3421 
 22           -6.113110E-03 -2.098312E-02  2.185547E-02 -106.2427 
 23           -6.162184E-03 -2.130925E-02  2.218235E-02 -106.1287 
 24           -6.189533E-03 -2.160027E-02  2.246958E-02 -105.9896 
J             -6.193381E-03 -2.200594E-02  2.286087E-02 -105.7188 
 
WIRE NO.  2 :
PULSE         REAL          IMAGINARY     MAGNITUDE     PHASE
 NO.          (AMPS)        (AMPS)        (AMPS)        (DEGREES)
E              0             0             0             0 
 25            5.787873E-04  1.829406E-03  1.918781E-03  72.44368 
 26            1.030435E-03  3.267016E-03  3.425666E-03  72.49444 
 27            1.451605E-03  4.616290E-03  4.839142E-03  72.54411 
 28            1.851402E-03  5.905594E-03  6.189000E-03  72.5938 
 29            2.233815E-03  7.147268E-03  7.488215E-03  72.64383 
 30            2.600408E-03  8.346066E-03  8.741793E-03  72.69438 
 31            2.951711E-03  9.503492E-03  9.951329E-03  72.74561 
 32            3.287722E-03  1.061939E-02  1.111668E-02  72.79768 
 33            3.608155E-03  1.169271E-02  1.223676E-02  72.85074 
 34            3.912554E-03  1.272187E-02  1.330993E-02  72.90496 
 35            4.200376E-03  1.370501E-02  1.433424E-02  72.9605 
 36            4.471029E-03  1.464014E-02  1.530764E-02  73.01758 
 37            4.723906E-03  1.552523E-02  1.622800E-02  73.07641 
 38            4.958407E-03  1.635828E-02  1.709325E-02  73.13727 
 39            5.173953E-03  1.713744E-02  1.790144E-02  73.20044 
 40            5.370002E-03  1.786099E-02  1.865079E-02  73.26632 
 41            5.546056E-03  1.852747E-02  1.933975E-02  73.33534 
 42            5.701671E-03  1.913573E-02  1.996711E-02  73.40808 
 43            5.836463E-03  1.968503E-02  2.053205E-02  73.48531 
 44            5.950116E-03  2.017524E-02  2.103435E-02  73.56807 
 45            6.042387E-03  2.060713E-02  2.147473E-02  73.6579 
 46            6.113110E-03  2.098312E-02  2.185547E-02  73.75733 
 47            6.162184E-03  2.130925E-02  2.218235E-02  73.87125 
 48            6.189533E-03  2.160027E-02  2.246958E-02  74.01041 
J              6.193381E-03  2.200594E-02  2.286087E-02  74.28121 
