                   ****************************************
                     MINI-NUMERICAL ELECTROMAGNETICS CODE
                                   MININEC
                       04-02-2024              21:13:14
                   ****************************************
 
FREQUENCY (MHZ): 299.8 
    WAVE LENGTH =  1  METERS
 
ENVIRONMENT (+1 FOR FREE SPACE, -1 FOR GROUND PLANE): -1 
 NUMBER OF MEDIA (0 FOR PERFECTLY CONDUCTING GROUND):  0 
 
NO. OF WIRES: 2 
 
WIRE NO. 1 
            COORDINATES                                 END         NO. OF
   X             Y             Z          RADIUS     CONNECTION     SEGMENTS
-.2309699     -9.567086E-02  .5                          0 
 0             0             .5            .001          0             10 
 
WIRE NO. 2 
            COORDINATES                                 END         NO. OF
   X             Y             Z          RADIUS     CONNECTION     SEGMENTS
-.2309699      9.567086E-02  .5                          0 
 0             0             .5            .001         -1             10 
 
                  **** ANTENNA GEOMETRY ****
 
WIRE NO.  1  COORDINATES                                CONNECTION PULSE
X             Y             Z             RADIUS        END1 END2  NO.
-.2078729     -8.610377E-02  .5            .001           0    1    1
-.1847759     -7.653669E-02  .5            .001           1    1    2
-.1616789     -6.696961E-02  .5            .001           1    1    3
-.1385819     -5.740252E-02  .5            .001           1    1    4
-.1154849     -4.783543E-02  .5            .001           1    1    5
-9.238796E-02 -3.826834E-02  .5            .001           1    1    6
-6.929097E-02 -2.870126E-02  .5            .001           1    1    7
-4.619397E-02 -1.913417E-02  .5            .001           1    1    8
-2.309698E-02 -9.567082E-03  .5            .001           1    0    9
 
WIRE NO.  2  COORDINATES                                CONNECTION PULSE
X             Y             Z             RADIUS        END1 END2  NO.
-.2078729      8.610377E-02  .5            .001           0    2   10
-.1847759      7.653669E-02  .5            .001           2    2   11
-.1616789      6.696961E-02  .5            .001           2    2   12
-.1385819      5.740252E-02  .5            .001           2    2   13
-.1154849      4.783543E-02  .5            .001           2    2   14
-9.238796E-02  3.826834E-02  .5            .001           2    2   15
-6.929097E-02  2.870126E-02  .5            .001           2    2   16
-4.619397E-02  1.913417E-02  .5            .001           2    2   17
-2.309698E-02  9.567082E-03  .5            .001           2    2   18
 0             0             .5            .001           2   -1   19
 
NO. OF SOURCES :  1 
PULSE NO., VOLTAGE MAGNITUDE, PHASE (DEGREES):  19 , 1 , 0 
NUMBER OF LOADS 0 
 
********************    SOURCE DATA     ********************
PULSE  19     VOLTAGE = ( 1 , 0 J)
              CURRENT = ( 3.853706E-03 , 1.770291E-02 J)
              IMPEDANCE = ( 11.74037 ,-53.93215 J)
              POWER =  1.926853E-03  WATTS
 
********************    CURRENT DATA    ********************
 
WIRE NO.  1 :
PULSE         REAL          IMAGINARY     MAGNITUDE     PHASE
 NO.          (AMPS)        (AMPS)        (AMPS)        (DEGREES)
E              0             0             0             0 
 1            -7.6982E-04   -3.099267E-03  3.193443E-03 -103.9493 
 2            -1.399435E-03 -5.686987E-03  5.85664E-03  -103.8245 
 3            -1.963532E-03 -8.056338E-03  8.292167E-03 -103.6974 
 4            -2.464216E-03 -1.021328E-02  1.050635E-02 -103.5648 
 5            -2.897122E-03 -1.213818E-02  1.247913E-02 -103.4241 
 6            -3.256388E-03 -1.380583E-02  1.418468E-02 -103.2718 
 7            -3.53637E-03  -1.519327E-02  .0155994     -103.1028 
 8            -3.732341E-03 -1.628517E-02  .0167074     -102.9085 
 9            -3.840569E-03 -1.708338E-02  1.750977E-02 -102.6702 
J             -3.853706E-03 -1.770291E-02  1.811751E-02 -102.281 
 
WIRE NO.  2 :
PULSE         REAL          IMAGINARY     MAGNITUDE     PHASE
 NO.          (AMPS)        (AMPS)        (AMPS)        (DEGREES)
E              0             0             0             0 
 10            7.698206E-04  3.099271E-03  3.193447E-03  76.05073 
 11            1.399436E-03  5.686992E-03  5.856645E-03  76.17552 
 12            1.963533E-03  8.056341E-03  8.292169E-03  76.30263 
 13            2.464217E-03  1.021329E-02  1.050636E-02  76.43518 
 14            2.897123E-03  1.213818E-02  1.247913E-02  76.57588 
 15            3.256388E-03  1.380583E-02  1.418468E-02  76.72819 
 16            3.536369E-03  1.519326E-02  1.559939E-02  76.89718 
 17            3.73234E-03   1.628517E-02  1.670739E-02  77.09152 
 18            3.840569E-03  1.708338E-02  1.750976E-02  77.32981 
J              3.853706E-03  1.770291E-02  1.811751E-02  77.719 
