                   ****************************************
                     MINI-NUMERICAL ELECTROMAGNETICS CODE
                                   MININEC
                   ****************************************

FREQUENCY (MHZ): 299.8
    WAVE LENGTH =  1  METERS

ENVIRONMENT (+1 FOR FREE SPACE, -1 FOR GROUND PLANE): -1
 NUMBER OF MEDIA (0 FOR PERFECTLY CONDUCTING GROUND):  0

NO. OF GEO-OBJECTS: 2

WIRE NO. 1
            COORDINATES                                 END         NO. OF
   X             Y             Z          RADIUS     CONNECTION     SEGMENTS
-.23097       -.09567        .5                         0
 0             0             .5            .001         0             25

WIRE NO. 2
            COORDINATES                                 END         NO. OF
   X             Y             Z          RADIUS     CONNECTION     SEGMENTS
-.23097        .09567        .5                         0
 0             0             .5            .001        -1             25

                  **** ANTENNA GEOMETRY ****

WIRE NO.  1 COORDINATES                                 CONNECTION PULSE
X             Y             Z             RADIUS        END1 END2  NO.
-.221731      -.091844       .5            .001          0    1   1
-.212492      -.088017       .5            .001          1    1   2
-.203253      -.08419        .5            .001          1    1   3
-.194015      -.080363       .5            .001          1    1   4
-.184776      -.076536       .5            .001          1    1   5
-.175537      -.072709       .5            .001          1    1   6
-.166298      -.068883       .5            .001          1    1   7
-.15706       -.065056       .5            .001          1    1   8
-.147821      -.061229       .5            .001          1    1   9
-.138582      -.057402       .5            .001          1    1  10
-.129343      -.053575       .5            .001          1    1  11
-.120104      -.049748       .5            .001          1    1  12
-.110866      -.045922       .5            .001          1    1  13
-.101627      -.042095       .5            .001          1    1  14
-.092388      -.038268       .5            .001          1    1  15
-.083149      -.034441       .5            .001          1    1  16
-.07391       -.030614       .5            .001          1    1  17
-.064671      -.026787       .5            .001          1    1  18
-.055432      -.022961       .5            .001          1    1  19
-.046194      -.019134       .5            .001          1    1  20
-.036955      -.015307       .5            .001          1    1  21
-.027716      -.01148        .5            .001          1    1  22
-.018477      -.007653       .5            .001          1    1  23
-.009238      -.003826       .5            .001          1    0  24

WIRE NO.  2 COORDINATES                                 CONNECTION PULSE
X             Y             Z             RADIUS        END1 END2  NO.
-.221731       .091844       .5            .001          0    2  25
-.212492       .088017       .5            .001          2    2  26
-.203253       .08419        .5            .001          2    2  27
-.194015       .080363       .5            .001          2    2  28
-.184776       .076536       .5            .001          2    2  29
-.175537       .072709       .5            .001          2    2  30
-.166298       .068883       .5            .001          2    2  31
-.15706        .065056       .5            .001          2    2  32
-.147821       .061229       .5            .001          2    2  33
-.138582       .057402       .5            .001          2    2  34
-.129343       .053575       .5            .001          2    2  35
-.120104       .049748       .5            .001          2    2  36
-.110866       .045922       .5            .001          2    2  37
-.101627       .042095       .5            .001          2    2  38
-.092388       .038268       .5            .001          2    2  39
-.083149       .034441       .5            .001          2    2  40
-.07391        .030614       .5            .001          2    2  41
-.064671       .026787       .5            .001          2    2  42
-.055432       .022961       .5            .001          2    2  43
-.046194       .019134       .5            .001          2    2  44
-.036955       .015307       .5            .001          2    2  45
-.027716       .01148        .5            .001          2    2  46
-.018477       .007653       .5            .001          2    2  47
-.009238       .003826       .5            .001          2    2  48
 0             0             .5            .001          2   -1  49

NO. OF SOURCES :  1
PULSE NO., VOLTAGE MAGNITUDE, PHASE (DEGREES): 49 , 1 , 0
NUMBER OF LOADS 0

********************    SOURCE DATA     ********************
PULSE 49      VOLTAGE = ( 1 , 0 J)
              CURRENT = ( 6.193391E-03 ,  2.200596E-02 J)
              IMPEDANCE = ( 11.85065 , -42.10697 J)
              POWER =  3.096695E-03  WATTS

********************    CURRENT DATA    ********************

WIRE NO.  1 :
PULSE         REAL          IMAGINARY     MAGNITUDE     PHASE
 NO.          (AMPS)        (AMPS)        (AMPS)        (DEGREES)
E              0             0             0             0
 1            -5.787880E-04 -1.829407E-03  1.918783E-03 -107.5563 
 2            -1.030436E-03 -3.267018E-03  3.425668E-03 -107.5056 
 3            -1.451606E-03 -4.616293E-03  4.839145E-03 -107.4559 
 4            -1.851404E-03 -5.905597E-03  6.189004E-03 -107.4062 
 5            -2.233818E-03 -7.147272E-03  7.488220E-03 -107.3562 
 6            -2.600412E-03 -8.346071E-03  8.741798E-03 -107.3056 
 7            -2.951714E-03 -9.503497E-03  9.951335E-03 -107.2544 
 8            -3.287727E-03 -1.061940E-02  1.111669E-02 -107.2023 
 9            -3.608159E-03 -1.169272E-02  1.223677E-02 -107.1493 
 10           -3.912559E-03 -1.272188E-02  1.330993E-02 -107.0951 
 11           -4.200381E-03 -1.370502E-02  1.433425E-02 -107.0395 
 12           -4.471035E-03 -1.464015E-02  1.530765E-02 -106.9824 
 13           -4.723912E-03 -1.552523E-02  1.622801E-02 -106.9236 
 14           -4.958413E-03 -1.635829E-02  1.709326E-02 -106.8627 
 15           -5.173960E-03 -1.713745E-02  1.790145E-02 -106.7996 
 16           -5.370009E-03 -1.786100E-02  1.865080E-02 -106.7337 
 17           -5.546063E-03 -1.852749E-02  1.933977E-02 -106.6647 
 18           -5.701678E-03 -1.913574E-02  1.996712E-02 -106.5919 
 19           -5.836470E-03 -1.968504E-02  2.053206E-02 -106.5147 
 20           -5.950126E-03 -2.017526E-02  2.103438E-02 -106.4319 
 21           -6.042397E-03 -2.060715E-02  2.147475E-02 -106.3421 
 22           -6.113119E-03 -2.098314E-02  2.185549E-02 -106.2427 
 23           -6.162193E-03 -2.130927E-02  2.218237E-02 -106.1288 
 24           -6.189542E-03 -2.160029E-02  2.246960E-02 -105.9896 
J             -6.193391E-03 -2.200596E-02  2.286089E-02 -105.7188 
WIRE NO.  2 :
PULSE         REAL          IMAGINARY     MAGNITUDE     PHASE
 NO.          (AMPS)        (AMPS)        (AMPS)        (DEGREES)
E              0             0             0             0
 25            5.787881E-04  1.829408E-03  1.918783E-03  72.44367 
 26            1.030436E-03  3.267018E-03  3.425669E-03  72.49443 
 27            1.451607E-03  4.616294E-03  4.839146E-03  72.5441  
 28            1.851405E-03  5.905598E-03  6.189005E-03  72.59379 
 29            2.233818E-03  7.147273E-03  7.488221E-03  72.64382 
 30            2.600412E-03  8.346072E-03  8.741800E-03  72.69437 
 31            2.951715E-03  9.503499E-03  9.951337E-03  72.7456  
 32            3.287727E-03  1.061940E-02  1.111669E-02  72.79767 
 33            3.608160E-03  1.169272E-02  1.223677E-02  72.85073 
 34            3.912560E-03  1.272188E-02  1.330994E-02  72.90494 
 35            4.200382E-03  1.370502E-02  1.433426E-02  72.96049 
 36            4.471035E-03  1.464015E-02  1.530765E-02  73.01757 
 37            4.723913E-03  1.552524E-02  1.622801E-02  73.0764  
 38            4.958414E-03  1.635830E-02  1.709326E-02  73.13725 
 39            5.173961E-03  1.713745E-02  1.790146E-02  73.20043 
 40            5.370010E-03  1.786101E-02  1.865081E-02  73.2663  
 41            5.546064E-03  1.852749E-02  1.933977E-02  73.33532 
 42            5.701679E-03  1.913575E-02  1.996712E-02  73.40807 
 43            5.836472E-03  1.968505E-02  2.053206E-02  73.4853  
 44            5.950125E-03  2.017525E-02  2.103437E-02  73.56805 
 45            6.042397E-03  2.060715E-02  2.147475E-02  73.65789 
 46            6.113119E-03  2.098314E-02  2.185549E-02  73.75732 
 47            6.162193E-03  2.130927E-02  2.218237E-02  73.87124 
 48            6.189542E-03  2.160029E-02  2.246960E-02  74.0104  
J              6.193391E-03  2.200596E-02  2.286089E-02  74.28119 

********************     FAR FIELD      ********************

ZENITH ANGLE : INITIAL,INCREMENT,NUMBER: 0 , 10 , 2
AZIMUTH ANGLE: INITIAL,INCREMENT,NUMBER: 0 , 10 , 2

********************    PATTERN DATA    ********************
ZENITH        AZIMUTH       VERTICAL      HORIZONTAL    TOTAL
 ANGLE         ANGLE        PATTERN (DB)  PATTERN (DB)  PATTERN (DB)
 0             0            -999          -999          -999     
 10            0            -155.8424     -18.83585     -18.83585
 0             10           -999          -999          -999     
 10            10           -34.17467     -18.96739     -18.83839
