                   ****************************************
                     MINI-NUMERICAL ELECTROMAGNETICS CODE
                                   MININEC
                       04-02-2024              21:23:16
                   ****************************************
 
FREQUENCY (MHZ): 299.8 
    WAVE LENGTH =  1  METERS
 
ENVIRONMENT (+1 FOR FREE SPACE, -1 FOR GROUND PLANE): -1 
 NUMBER OF MEDIA (0 FOR PERFECTLY CONDUCTING GROUND):  0 
 
NO. OF WIRES: 2 
 
WIRE NO. 1 
            COORDINATES                                 END         NO. OF
   X             Y             Z          RADIUS     CONNECTION     SEGMENTS
-.2309699     -9.567086E-02  .5                          0 
 0             0             .5            .001          0             20 
 
WIRE NO. 2 
            COORDINATES                                 END         NO. OF
   X             Y             Z          RADIUS     CONNECTION     SEGMENTS
-.2309699      9.567086E-02  .5                          0 
 0             0             .5            .001         -1             20 
 
                  **** ANTENNA GEOMETRY ****
 
WIRE NO.  1  COORDINATES                                CONNECTION PULSE
X             Y             Z             RADIUS        END1 END2  NO.
-.2194214     -9.088732E-02  .5            .001           0    1    1
-.2078729     -8.610377E-02  .5            .001           1    1    2
-.1963244     -8.132023E-02  .5            .001           1    1    3
-.1847759     -7.653669E-02  .5            .001           1    1    4
-.1732274     -7.175315E-02  .5            .001           1    1    5
-.1616789     -6.696961E-02  .5            .001           1    1    6
-.1501304     -6.218606E-02  .5            .001           1    1    7
-.1385819     -5.740252E-02  .5            .001           1    1    8
-.1270334     -5.261897E-02  .5            .001           1    1    9
-.1154849     -4.783543E-02  .5            .001           1    1   10
-.1039364     -4.305189E-02  .5            .001           1    1   11
-9.238796E-02 -3.826834E-02  .5            .001           1    1   12
-8.083946E-02 -.0334848      .5            .001           1    1   13
-6.929097E-02 -2.870126E-02  .5            .001           1    1   14
-5.774248E-02 -2.391771E-02  .5            .001           1    1   15
-4.619397E-02 -1.913417E-02  .5            .001           1    1   16
-3.464548E-02 -1.435063E-02  .5            .001           1    1   17
-2.309698E-02 -9.567082E-03  .5            .001           1    1   18
-1.154849E-02 -4.783541E-03  .5            .001           1    0   19
 
WIRE NO.  2  COORDINATES                                CONNECTION PULSE
X             Y             Z             RADIUS        END1 END2  NO.
-.2194214      9.088732E-02  .5            .001           0    2   20
-.2078729      8.610377E-02  .5            .001           2    2   21
-.1963244      8.132023E-02  .5            .001           2    2   22
-.1847759      7.653669E-02  .5            .001           2    2   23
-.1732274      7.175315E-02  .5            .001           2    2   24
-.1616789      6.696961E-02  .5            .001           2    2   25
-.1501304      6.218606E-02  .5            .001           2    2   26
-.1385819      5.740252E-02  .5            .001           2    2   27
-.1270334      5.261897E-02  .5            .001           2    2   28
-.1154849      4.783543E-02  .5            .001           2    2   29
-.1039364      4.305189E-02  .5            .001           2    2   30
-9.238796E-02  3.826834E-02  .5            .001           2    2   31
-8.083946E-02  .0334848      .5            .001           2    2   32
-6.929097E-02  2.870126E-02  .5            .001           2    2   33
-5.774248E-02  2.391771E-02  .5            .001           2    2   34
-4.619397E-02  1.913417E-02  .5            .001           2    2   35
-3.464548E-02  1.435063E-02  .5            .001           2    2   36
-2.309698E-02  9.567082E-03  .5            .001           2    2   37
-1.154849E-02  4.783541E-03  .5            .001           2    2   38
 0             0             .5            .001           2   -1   39
 
NO. OF SOURCES :  1 
PULSE NO., VOLTAGE MAGNITUDE, PHASE (DEGREES):  39 , 1 , 0 
NUMBER OF LOADS 0 
 
********************    SOURCE DATA     ********************
PULSE  39     VOLTAGE = ( 1 , 0 J)
              CURRENT = ( 5.736317E-03 , .0212524 J)
              IMPEDANCE = ( 11.83796 ,-43.85829 J)
              POWER =  2.868159E-03  WATTS
 
********************    CURRENT DATA    ********************
 
WIRE NO.  1 :
PULSE         REAL          IMAGINARY     MAGNITUDE     PHASE
 NO.          (AMPS)        (AMPS)        (AMPS)        (DEGREES)
E              0             0             0             0 
 1            -6.398853E-04 -2.105188E-03  2.200288E-03 -106.907 
 2            -1.14918E-03  -3.795723E-03  3.96587E-03  -106.844 
 3            -1.622496E-03 -5.380099E-03  5.619427E-03 -106.782 
 4            -2.069299E-03 -6.888827E-03  7.192908E-03 -106.7195 
 5            -2.492966E-03 -8.332616E-03  8.697549E-03 -106.6562 
 6            -2.894354E-03 -9.713962E-03  1.013599E-02 -106.5919 
 7            -3.273257E-03 -.0110319      1.150726E-02 -106.5261 
 8            -3.628957E-03 -1.228378E-02  1.280861E-02 -106.4586 
 9            -3.960492E-03 -1.346618E-02  1.403651E-02 -106.389 
 10           -4.266787E-03 -1.457531E-02  1.518701E-02 -106.3169 
 11           -4.546741E-03 -1.560738E-02  1.625617E-02 -106.2419 
 12           -4.799292E-03 -1.655874E-02  1.724021E-02 -106.1634 
 13           -5.023442E-03 -1.742614E-02  1.813574E-02 -106.0807 
 14           -.0052183     -1.820688E-02  1.893994E-02 -105.9929 
 15           -5.383094E-03 -1.889908E-02  1.965077E-02 -105.8987 
 16           -5.517188E-03 -.019502       2.026739E-02 -105.7964 
 17           -5.620104E-03 -2.001691E-02  2.079092E-02 -105.683 
 18           -5.691498E-03 -2.044915E-02  2.122642E-02 -105.5532 
 19           -5.731076E-03 -2.081409E-02  2.158869E-02 -105.3947 
J             -5.736317E-03 -.0212524      2.201294E-02 -105.105 
 
WIRE NO.  2 :
PULSE         REAL          IMAGINARY     MAGNITUDE     PHASE
 NO.          (AMPS)        (AMPS)        (AMPS)        (DEGREES)
E              0             0             0             0 
 20            6.398831E-04  2.105177E-03  2.200277E-03  73.09299 
 21            1.149175E-03  3.795704E-03  3.96585E-03   73.15596 
 22            1.62249E-03   5.380071E-03  5.619398E-03  73.21804 
 23            2.069291E-03  6.888792E-03  7.192872E-03  73.2805 
 24            2.492956E-03  8.332575E-03  8.697506E-03  73.34376 
 25            2.894343E-03  9.71392E-03   1.013595E-02  73.40813 
 26            3.273245E-03  1.103185E-02  1.150721E-02  73.47392 
 27            3.628946E-03  1.228373E-02  1.280856E-02  73.54143 
 28            3.96048E-03   1.346613E-02  1.403645E-02  73.61103 
 29            4.266773E-03  1.457526E-02  1.518695E-02  73.68309 
 30            4.546726E-03  1.560732E-02  1.625611E-02  73.7581 
 31            4.799276E-03  1.655868E-02  1.724015E-02  73.83657 
 32            5.023423E-03  1.742607E-02  1.813567E-02  73.91928 
 33            5.218279E-03  1.820681E-02  1.893986E-02  74.00708 
 34            5.383075E-03  1.889901E-02  .0196507      74.10126 
 35            5.517172E-03  1.950194E-02  2.026733E-02  74.20359 
 36            5.62009E-03   2.001687E-02  2.079087E-02  74.31697 
 37            5.691487E-03  2.044912E-02  2.122638E-02  74.44683 
 38            5.73107E-03   2.081407E-02  2.158867E-02  74.60531 
J              5.736317E-03  .0212524      2.201294E-02  74.89502 
