                   ****************************************
                     MINI-NUMERICAL ELECTROMAGNETICS CODE
                                   MININEC
                   ****************************************

FREQUENCY (MHZ): 28.5
    WAVE LENGTH =  10.5193  METERS

NO. OF WIRES: 22

WIRE NO. 1
            COORDINATES                                 END         NO. OF
   X             Y             Z          RADIUS     CONNECTION     SEGMENTS
-2.52984       0             0                          0
-2.50444       0             0             .000512      0              1

WIRE NO. 2
            COORDINATES                                 END         NO. OF
   X             Y             Z          RADIUS     CONNECTION     SEGMENTS
-2.50444       0             0                          1
-2.45364       0             0             .000512      0              1

WIRE NO. 3
            COORDINATES                                 END         NO. OF
   X             Y             Z          RADIUS     CONNECTION     SEGMENTS
-2.45364       0             0                          2
-2.35204       0             0             .000512      0              1

WIRE NO. 4
            COORDINATES                                 END         NO. OF
   X             Y             Z          RADIUS     CONNECTION     SEGMENTS
-2.35204       0             0                          3
-2.14884       0             0             .000512      0              1

WIRE NO. 5
            COORDINATES                                 END         NO. OF
   X             Y             Z          RADIUS     CONNECTION     SEGMENTS
-2.14884       0             0                          4
 0             0             0             .000512      0              6

WIRE NO. 6
            COORDINATES                                 END         NO. OF
   X             Y             Z          RADIUS     CONNECTION     SEGMENTS
-2.52984       0             0                         -1
-2.52984       0             .0254         .000512      0              1

WIRE NO. 7
            COORDINATES                                 END         NO. OF
   X             Y             Z          RADIUS     CONNECTION     SEGMENTS
-2.52984       0             .0254                      6
-2.50444       0             .0254         .000512      0              1

WIRE NO. 8
            COORDINATES                                 END         NO. OF
   X             Y             Z          RADIUS     CONNECTION     SEGMENTS
-2.50444       0             .0254                      7
-2.45364       0             .0254         .000512      0              1

WIRE NO. 9
            COORDINATES                                 END         NO. OF
   X             Y             Z          RADIUS     CONNECTION     SEGMENTS
-2.45364       0             .0254                      8
-2.35204       0             .0254         .000512      0              1

WIRE NO. 10
            COORDINATES                                 END         NO. OF
   X             Y             Z          RADIUS     CONNECTION     SEGMENTS
-2.35204       0             .0254                      9
-2.14884       0             .0254         .000512      0              1

WIRE NO. 11
            COORDINATES                                 END         NO. OF
   X             Y             Z          RADIUS     CONNECTION     SEGMENTS
-2.14884       0             .0254                     10
 0             0             .0254         .000512      0              6

WIRE NO. 12
            COORDINATES                                 END         NO. OF
   X             Y             Z          RADIUS     CONNECTION     SEGMENTS
 2.52984       0             0                          0
 2.50444       0             0             .000512      0              1

WIRE NO. 13
            COORDINATES                                 END         NO. OF
   X             Y             Z          RADIUS     CONNECTION     SEGMENTS
 2.50444       0             0                         12
 2.45364       0             0             .000512      0              1

WIRE NO. 14
            COORDINATES                                 END         NO. OF
   X             Y             Z          RADIUS     CONNECTION     SEGMENTS
 2.45364       0             0                         13
 2.35204       0             0             .000512      0              1

WIRE NO. 15
            COORDINATES                                 END         NO. OF
   X             Y             Z          RADIUS     CONNECTION     SEGMENTS
 2.35204       0             0                         14
 2.14884       0             0             .000512      0              1

WIRE NO. 16
            COORDINATES                                 END         NO. OF
   X             Y             Z          RADIUS     CONNECTION     SEGMENTS
 2.14884       0             0                         15
 0             0             0             .000512     -5              6

WIRE NO. 17
            COORDINATES                                 END         NO. OF
   X             Y             Z          RADIUS     CONNECTION     SEGMENTS
 2.52984       0             0                        -12
 2.52984       0             .0254         .000512      0              1

WIRE NO. 18
            COORDINATES                                 END         NO. OF
   X             Y             Z          RADIUS     CONNECTION     SEGMENTS
 2.52984       0             .0254                     17
 2.50444       0             .0254         .000512      0              1

WIRE NO. 19
            COORDINATES                                 END         NO. OF
   X             Y             Z          RADIUS     CONNECTION     SEGMENTS
 2.50444       0             .0254                     18
 2.45364       0             .0254         .000512      0              1

WIRE NO. 20
            COORDINATES                                 END         NO. OF
   X             Y             Z          RADIUS     CONNECTION     SEGMENTS
 2.45364       0             .0254                     19
 2.35204       0             .0254         .000512      0              1

WIRE NO. 21
            COORDINATES                                 END         NO. OF
   X             Y             Z          RADIUS     CONNECTION     SEGMENTS
 2.35204       0             .0254                     20
 2.14884       0             .0254         .000512      0              1

WIRE NO. 22
            COORDINATES                                 END         NO. OF
   X             Y             Z          RADIUS     CONNECTION     SEGMENTS
 2.14884       0             .0254                     21
 0             0             .0254         .000512     -11              6

                  **** ANTENNA GEOMETRY ****

WIRE NO.  1  COORDINATES                                CONNECTION PULSE
X             Y             Z             RADIUS        END1 END2  NO.
-             -             -                 -          -    -    0   

WIRE NO.  2  COORDINATES                                CONNECTION PULSE
X             Y             Z             RADIUS        END1 END2  NO.
-2.50444       0             0             .000512       1    0   1

WIRE NO.  3  COORDINATES                                CONNECTION PULSE
X             Y             Z             RADIUS        END1 END2  NO.
-2.45364       0             0             .000512       2    0   2

WIRE NO.  4  COORDINATES                                CONNECTION PULSE
X             Y             Z             RADIUS        END1 END2  NO.
-2.35204       0             0             .000512       3    0   3

WIRE NO.  5  COORDINATES                                CONNECTION PULSE
X             Y             Z             RADIUS        END1 END2  NO.
-2.14884       0             0             .000512       4    5   4
-1.7907        0             0             .000512       5    5   5
-1.43256       0             0             .000512       5    5   6
-1.07442       0             0             .000512       5    5   7
-.71628        0             0             .000512       5    5   8
-.35814        0             0             .000512       5    0   9

WIRE NO.  6  COORDINATES                                CONNECTION PULSE
X             Y             Z             RADIUS        END1 END2  NO.
-2.52984       0             0             .000512      -1    0  10

WIRE NO.  7  COORDINATES                                CONNECTION PULSE
X             Y             Z             RADIUS        END1 END2  NO.
-2.52984       0             .0254         .000512       6    0  11

WIRE NO.  8  COORDINATES                                CONNECTION PULSE
X             Y             Z             RADIUS        END1 END2  NO.
-2.50444       0             .0254         .000512       7    0  12

WIRE NO.  9  COORDINATES                                CONNECTION PULSE
X             Y             Z             RADIUS        END1 END2  NO.
-2.45364       0             .0254         .000512       8    0  13

WIRE NO. 10  COORDINATES                                CONNECTION PULSE
X             Y             Z             RADIUS        END1 END2  NO.
-2.35204       0             .0254         .000512       9    0  14

WIRE NO. 11  COORDINATES                                CONNECTION PULSE
X             Y             Z             RADIUS        END1 END2  NO.
-2.14884       0             .0254         .000512      10   11  15
-1.7907        0             .0254         .000512      11   11  16
-1.43256       0             .0254         .000512      11   11  17
-1.07442       0             .0254         .000512      11   11  18
-.71628        0             .0254         .000512      11   11  19
-.35814        0             .0254         .000512      11    0  20

WIRE NO. 12  COORDINATES                                CONNECTION PULSE
X             Y             Z             RADIUS        END1 END2  NO.
-             -             -                 -          -    -    0   

WIRE NO. 13  COORDINATES                                CONNECTION PULSE
X             Y             Z             RADIUS        END1 END2  NO.
 2.50444       0             0             .000512      12    0  21

WIRE NO. 14  COORDINATES                                CONNECTION PULSE
X             Y             Z             RADIUS        END1 END2  NO.
 2.45364       0             0             .000512      13    0  22

WIRE NO. 15  COORDINATES                                CONNECTION PULSE
X             Y             Z             RADIUS        END1 END2  NO.
 2.35204       0             0             .000512      14    0  23

WIRE NO. 16  COORDINATES                                CONNECTION PULSE
X             Y             Z             RADIUS        END1 END2  NO.
 2.14884       0             0             .000512      15   16  24
 1.7907        0             0             .000512      16   16  25
 1.43256       0             0             .000512      16   16  26
 1.07442       0             0             .000512      16   16  27
 .71628        0             0             .000512      16   16  28
 .35814        0             0             .000512      16   16  29
 0             0             0             .000512      16   -5  30

WIRE NO. 17  COORDINATES                                CONNECTION PULSE
X             Y             Z             RADIUS        END1 END2  NO.
 2.52984       0             0             .000512     -12    0  31

WIRE NO. 18  COORDINATES                                CONNECTION PULSE
X             Y             Z             RADIUS        END1 END2  NO.
 2.52984       0             .0254         .000512      17    0  32

WIRE NO. 19  COORDINATES                                CONNECTION PULSE
X             Y             Z             RADIUS        END1 END2  NO.
 2.50444       0             .0254         .000512      18    0  33

WIRE NO. 20  COORDINATES                                CONNECTION PULSE
X             Y             Z             RADIUS        END1 END2  NO.
 2.45364       0             .0254         .000512      19    0  34

WIRE NO. 21  COORDINATES                                CONNECTION PULSE
X             Y             Z             RADIUS        END1 END2  NO.
 2.35204       0             .0254         .000512      20    0  35

WIRE NO. 22  COORDINATES                                CONNECTION PULSE
X             Y             Z             RADIUS        END1 END2  NO.
 2.14884       0             .0254         .000512      21   22  36
 1.7907        0             .0254         .000512      22   22  37
 1.43256       0             .0254         .000512      22   22  38
 1.07442       0             .0254         .000512      22   22  39
 .71628        0             .0254         .000512      22   22  40
 .35814        0             .0254         .000512      22   22  41
 0             0             .0254         .000512      22  -11  42

NO. OF SOURCES :  1
PULSE NO., VOLTAGE MAGNITUDE, PHASE (DEGREES): 31 , 1 , 0

********************    SOURCE DATA     ********************
PULSE 31      VOLTAGE = ( 1 , 0 J)
              CURRENT = ( 9.614544E-07 , 1.289252E-02 J)
              IMPEDANCE = (  .005778  , -77.56435 J)
              POWER =  4.812272E-07  WATTS
ZENITH ANGLE : INITIAL,INCREMENT,NUMBER:  0 , 10 , 19
AZIMUTH ANGLE: INITIAL,INCREMENT,NUMBER:  0 , 10 , 37

********************    PATTERN DATA    ********************
ZENITH        AZIMUTH       VERTICAL      HORIZONTAL    TOTAL
 ANGLE         ANGLE        PATTERN (DB)  PATTERN (DB)  PATTERN (DB)
 0             0            -2.891327     -999          -2.891327
 10            0            -2.953996     -999          -2.953996
 20            0            -3.338121     -999          -3.338121
 30            0            -4.06831      -999          -4.06831 
 40            0            -5.184445     -999          -5.184445
 50            0            -6.759597     -999          -6.759597
 60            0            -8.936989     -999          -8.936989
 70            0            -11.99021     -999          -11.99021
 80            0            -16.11378     -999          -16.11378
 90            0            -17.605       -999          -17.605  
 100           0            -13.18282     -999          -13.18282
 110           0            -9.098911     -999          -9.098911
 120           0            -6.06837      -999          -6.06837 
 130           0            -3.77107      -999          -3.77107 
 140           0            -2.021704     -999          -2.021704
 150           0            -.735029      -999          -.735029 
 160           0             .124291      -999           .124291 
 170           0             .568422      -999           .568422 
 180           0             .600127      -999           .600127 
 0             10           -3.024298     -18.09792     -2.891327
 10            10           -3.111859     -16.41847     -2.913627
 20            10           -3.50202      -14.672       -3.182348
 30            10           -4.218915     -13.53264     -3.73792 
 40            10           -5.297928     -13.08755     -4.629618
 50            10           -6.796511     -13.27897     -5.915937
 60            10           -8.807769     -14.01998     -7.664505
 70            10           -11.43052     -15.17698     -9.9014  
 80            10           -14.3036      -16.45712     -12.23792
 90            10           -14.80596     -17.26429     -12.85316
 100           10           -11.82242     -17.02665     -10.6773 
 110           10           -8.504608     -15.97507     -7.789317
 120           10           -5.7955       -14.79328     -5.280282
 130           10           -3.660086     -13.91266     -3.268523
 140           10           -2.005999     -13.49865     -1.708451
 150           10           -.781128      -13.57806     -.558834 
 160           10            .036368      -14.04335      .202886 
 170           10            .452538      -14.55909      .587391 
 180           10            .467156      -14.60647      .600127 
 0             20           -3.431611     -12.21029     -2.891327
 10            20           -3.583149     -10.6197      -2.799109
 20            20           -3.951399     -8.943969     -2.756302
 30            20           -4.552404     -7.827752     -2.878056
 40            20           -5.397177     -7.372297     -3.263109
 50            20           -6.480378     -7.530426     -3.963443
 60            20           -7.748763     -8.219081     -4.967259
 70            20           -9.017142     -9.303898     -6.147854
 80            20           -9.835659     -10.49595     -7.14297 
 90            20           -9.6223       -11.23666     -7.344598
 100           20           -8.343819     -11.0144      -6.466689
 110           20           -6.568246     -10.03885     -4.955414
 120           20           -4.777046     -8.933152     -3.365524
 130           20           -3.185775     -8.106353     -1.97325 
 140           20           -1.874333     -7.720081     -.869695 
 150           20           -.87656       -7.79724      -.073167 
 160           20           -.212561      -8.227195      .42436  
 170           20            .102929      -8.690231      .641522 
 180           20            .059843      -8.718839      .600127 
 0             30           -4.140715     -8.911927     -2.891327
 10            30           -4.356946     -7.465218     -2.628446
 20            30           -4.536891     -5.909949     -2.159082
 30            30           -4.697365     -4.838278     -1.75695 
 40            30           -4.861836     -4.371018     -1.599197
 50            30           -5.035418     -4.477557     -1.737237
 60            30           -5.190242     -5.081062     -2.125009
 70            30           -5.265861     -6.046704     -2.628457
 80            30           -5.186442     -7.095028     -3.026423
 90            30           -4.893126     -7.729848     -3.07358 
 100           30           -4.376455     -7.530181     -2.662827
 110           30           -3.684912     -6.673571     -1.916774
 120           30           -2.904302     -5.689309     -1.066986
 130           30           -2.128523     -4.947741     -.302978 
 140           30           -1.440814     -4.602528      .270211 
 150           30           -.907567      -4.670875      .616559 
 160           30           -.578293      -5.04009       .75054  
 170           30           -.486506      -5.419531      .72299  
 180           30           -.64926       -5.420473      .600127 
 0             40           -5.206248     -6.729977     -2.891327
 10            40           -5.398793     -5.475488     -2.426671
 20            40           -4.973643     -4.092637     -1.500538
 30            40           -4.201181     -3.09501      -.602672 
 40            40           -3.380466     -2.622101      .025548 
 50            40           -2.667471     -2.663898      .344616 
 60            40           -2.103033     -3.151972      .41439  
 70            40           -1.6731       -3.953177      .345106 
 80            40           -1.345921     -4.807425      .269737 
 90            40           -1.090813     -5.303968      .304954 
 100           40           -.887182      -5.129401      .500616 
 110           40           -.727879      -4.422465      .8167   
 120           40           -.61853       -3.596122      1.153312
 130           40           -.573926      -2.964447      1.403557
 140           40           -.612559      -2.666733      1.490989
 150           40           -.750127      -2.713837      1.388375
 160           40           -.992256      -2.996538      1.130514
 170           40           -1.326498     -3.269051      .820242 
 180           40           -1.714794     -3.238523      .600127 
 0             50           -6.729977     -5.206248     -2.891327
 10            50           -6.616702     -4.182315     -2.220825
 20            50           -4.951039     -3.023412     -.870844 
 30            50           -3.040581     -2.138367      .444213 
 40            50           -1.448678     -1.675293      1.449792
 50            50           -.240467      -1.645207      2.124013
 60            50            .637594      -1.990433      2.529705
 70            50            1.249252     -2.585282      2.752418
 80            50            1.645767     -3.204217      2.875595
 90            50            1.862247     -3.539447      2.962386
 100           50            1.917935     -3.385712      3.040208
 110           50            1.817609     -2.841307      3.095344
 120           50            1.553911     -2.194822      3.082356
 130           50            1.111146     -1.687673      2.943703
 140           50            .471914      -1.4359        2.632236
 150           50           -.369765      -1.444981      2.136117
 160           50           -1.38036      -1.619614      1.51196 
 170           50           -2.431735     -1.77415       .919791 
 180           50           -3.238523     -1.714794      .600127 
 0             60           -8.911927     -4.140715     -2.891327
 10            60           -7.806092     -3.372105     -2.035925
 20            60           -4.420942     -2.481432     -.333505 
 30            60           -1.65559      -1.75359       1.305986
 40            60            .342592      -1.32491       2.598685
 50            60            1.771994     -1.222107      3.538313
 60            60            2.781341     -1.401322      4.18551 
 70            60            3.465939     -1.755644      4.607036
 80            60            3.885378     -2.113033      4.858925
 90            60            4.074454     -2.275111      4.979725
 100           60            4.048817     -2.129314      4.986865
 110           60            3.807663     -1.736531      4.876316
 120           60            3.334752     -1.269369      4.626519
 130           60            2.59835      -.886665       4.206718
 140           60            1.550988     -.671817       3.590569
 150           60            .133274      -.62749        2.779829
 160           60           -1.696904     -.685081       1.848708
 170           60           -3.813721     -.727799       1.008052
 180           60           -5.420473     -.64926        .600127 
 0             70           -12.21029     -3.431611     -2.891327
 10            70           -8.633186     -2.926168     -1.892514
 20            70           -3.652021     -2.328574      .070221 
 30            70           -.447417      -1.797999      1.939883
 40            70            1.72088      -1.432832      3.434513
 50            70            3.240869     -1.263277      4.558578
 60            70            4.306063     -1.263237      5.369253
 70            70            5.0219       -1.360907      5.920935
 80            70            5.448216     -1.453892      6.25475 
 90            70            5.617248     -1.443378      6.39732 
 100           70            5.541458     -1.282826      6.361281
 110           70            5.216339     -1.002551      6.146499
 120           70            4.61986      -.682897       5.742335
 130           70            3.708334     -.404015       5.132042
 140           70            2.406753     -.212158       4.302086
 150           70            .589351      -.110283       3.263907
 160           70           -1.951179     -.064352       2.104207
 170           70           -5.448049     -.021702       1.072932
 180           70           -8.718839      .059843       .600127 
 0             80           -18.09792     -3.024298     -2.891327
 10            80           -8.811072     -2.770684     -1.805534
 20            80           -2.949377     -2.455053      .315114 
 30            80            .395033      -2.134919      2.322035
 40            80            2.608073     -1.854338      3.936744
 50            80            4.152341     -1.63287       5.16955 
 60            80            5.233185     -1.46499       6.074964
 70            80            5.956181     -1.326402      6.700531
 80            80            6.378727     -1.185152      7.079961
 90            80            6.530347     -1.015231      7.234315
 100           80            6.421098     -.807582       7.173983
 110           80            6.044152     -.57265        6.90038 
 120           80            5.374143     -.333388       6.407689
 130           80            4.360317     -.11391        5.685876
 140           80            2.909897      .06966        4.72824 
 150           80            .847577       .212857       3.552102
 160           80           -2.196897      .321045       2.252355
 170           80           -7.159454      .40369        1.105034
 180           80           -14.60647      .467156       .600127 
 0             90           -999          -2.891327     -2.891327
 10            90           -8.373986     -2.859037     -1.783987
 20            90           -2.486335     -2.763812      .387442 
 30            90            .812065      -2.610411      2.439885
 40            90            2.994055     -2.406238      4.094507
 50            90            4.517828     -2.160651      5.363084
 60            90            5.583402     -1.884183      6.29913 
 70            90            6.292539     -1.587793      6.948027
 80            90            6.699874     -1.282235      7.341246
 90            90            6.832852     -.977574       7.498201
 100           90            6.699874     -.682889       7.428597
 110           90            6.292539     -.406108       7.134235
 120           90            5.583402     -.153964       6.610646
 130           90            4.517828      .067969       5.84981 
 140           90            2.994055      .255206       4.847349
 150           90            .812065       .404246       3.623241
 160           90           -2.486335      .512487       2.277229
 170           90           -8.373986      .578131       1.09848 
 180           90           -999           .600127       .600127 
 0             100          -18.09792     -3.024298     -2.891327
 10            100          -7.601505     -3.166918     -1.830897
 20            100          -2.318173     -3.180223      .282456 
 30            100           .799063      -3.080924      2.28898 
 40            100           2.887848     -2.903153      3.903849
 50            100           4.350096     -2.674968      5.136034
 60            100           5.369649     -2.406342      6.039906
 70            100           6.042414     -2.092937      6.663064
 80            100           6.420585     -1.729618      7.039261
 90            100           6.530353     -1.323572      7.18955 
 100           100           6.379158     -.898536       7.124278
 110           100           5.957559     -.488753       6.84479 
 120           100           5.236886     -.128294       6.345223
 130           100           4.16127       .157766       5.615677
 140           100           2.628574      .357672       4.650192
 150           100           .443279       .473276       3.468604
 160           100          -2.81793       .517437       2.172674
 170           100          -8.252664      .509151       1.051411
 180           100          -14.60647      .467156       .600127 
 0             110          -12.21029     -3.431611     -2.891327
 10            110          -6.736156     -3.693408     -1.943284
 20            110          -2.42574      -3.67755       .003602 
 30            110           .378663      -3.489398      1.872047
 40            110           2.305465     -3.271455      3.367001
 50            110           3.659505     -3.104401      4.489775
 60            110           4.597724     -2.978803      5.297074
 70            110           5.207607     -2.815652      5.843353
 80            110           5.538905     -2.519795      6.169842
 90            110           5.617261     -2.050052      6.303228
 100           110           5.449936     -1.453962      6.256167
 110           110           5.027304     -.835029       6.028522
 120           110           4.321049     -.295049       5.609737
 130           110           3.278318      .098822       4.983561
 140           110           1.809108      .319851       4.138305
 150           110          -.237908       .377473       3.090973
 160           110          -3.102124      .311749       1.94226 
 170           110          -6.865395      .184351       .966213 
 180           110          -8.718839      .059843       .600127 
 0             120          -8.911927     -4.140715     -2.891327
 10            120          -5.896847     -4.465318     -2.112065
 20            120          -2.736135     -4.297378     -.436675 
 30            120          -.39838       -3.916606      1.199736
 40            120           1.274454     -3.621519      2.492986
 50            120           2.458014     -3.544502      3.430737
 60            120           3.268768     -3.651289      4.072265
 70            120           3.781045     -3.770381      4.484138
 80            120           4.041086     -3.657208      4.72254 
 90            120           4.074475     -3.160527      4.826354
 100           120           3.889588     -2.36195       4.813472
 110           120           3.478816     -1.486792      4.680414
 120           120           2.818487     -.733175       4.406337
 130           120           1.868236     -.211689       3.961916
 140           120           .572446       .039638       3.324508
 150           120          -1.12322       .036248       2.505394
 160           120          -3.178556     -.157534       1.599807
 170           120          -5.08134      -.430218       .849505 
 180           120          -5.420473     -.64926        .600127 
 0             130          -6.729977     -5.206248     -2.891327
 10            130          -5.129284     -5.545162     -2.321947
 20            130          -3.131991     -5.149412     -1.014296
 30            130          -1.433428     -4.545981      .293667 
 40            130          -.145791      -4.178866      1.300221
 50            130           .7733        -4.201203      1.97275 
 60            130           1.386457     -4.560315      2.370424
 70            130           1.747732     -5.01975       2.57738 
 80            130           1.897554     -5.168124      2.676795
 90            130           1.862279     -4.675264      2.732796
 100           130           1.654738     -3.657893      2.774966
 110           130           1.275731     -2.513087      2.792322
 120           130           .717616      -1.545364      2.742185
 130           130          -.027507      -.895598       2.570401
 140           130          -.949291      -.605527       2.236292
 150           130          -1.979188     -.657424       1.742085
 160           130          -2.923325     -.973311       1.170521
 170           130          -3.437161     -1.397181      .711822 
 180           130          -3.238523     -1.714794      .600127 
 0             140          -5.206248     -6.729977     -2.891327
 10            140          -4.456391     -7.048722     -2.551639
 20            140          -3.477158     -6.404878     -1.688544
 30            140          -2.553065     -5.604908     -.805956 
 40            140          -1.819805     -5.191614     -.176083 
 50            140          -1.312067     -5.308843      .144256 
 60            140          -1.017247     -5.893435      .206134 
 70            140          -.904844      -6.682603      .113923 
 80            140          -.940255      -7.1223       -.002967 
 90            140          -1.090763     -6.654298     -.02632  
 100           140          -1.326908     -5.420712      .101992 
 110           140          -1.619949     -4.022762      .353042 
 120           140          -1.935825     -2.863221      .635485 
 130           140          -2.227915     -2.096626      .848526 
 140           140          -2.435119     -1.762745      .924367 
 150           140          -2.495046     -1.845137      .852355 
 160           140          -2.373778     -2.262738      .692397 
 170           140          -2.091203     -2.826666      .566916 
 180           140          -1.714794     -3.238523      .600127 
 0             150          -4.140715     -8.911927     -2.891327
 10            150          -3.899551     -9.192648     -2.774874
 20            150          -3.674787     -8.324785     -2.394778
 30            150          -3.519789     -7.377413     -2.023365
 40            150          -3.478396     -6.943336     -1.863805
 50            150          -3.572503     -7.142674     -1.990313
 60            150          -3.799255     -7.906764     -2.374193
 70            150          -4.132302     -8.972523     -2.900065
 80            150          -4.522053     -9.686193     -3.367615
 90            150          -4.893044     -9.252733     -3.537063
 100           150          -5.142744     -7.82541      -3.269851
 110           150          -5.156106     -6.213074     -2.642214
 120           150          -4.850816     -4.896789     -1.863442
 130           150          -4.233188     -4.032258     -1.121261
 140           150          -3.406726     -3.654956     -.518768 
 150           150          -2.519742     -3.751859     -.081951 
 160           150          -1.707103     -4.245543      .216859 
 170           150          -1.064678     -4.926478      .430529 
 180           150          -.64926       -5.420473      .600127 
 0             160          -3.431611     -12.21029     -2.891327
 10            160          -3.48128      -12.451       -2.962914
 20            160          -3.720934     -11.41067     -3.038236
 30            160          -4.145435     -10.36612     -3.215621
 40            160          -4.754675     -9.927374     -3.602234
 50            160          -5.549207     -10.19016     -4.266886
 60            160          -6.521072     -11.08283     -5.218366
 70            160          -7.632708     -12.35226     -6.370349
 80            160          -8.765111     -13.28572     -7.451705
 90            160          -9.622155     -12.88567     -7.944019
 100           160          -9.722029     -11.30531     -7.431615
 110           160          -8.798539     -9.531831     -6.139427
 120           160          -7.173291     -8.100431     -4.601867
 130           160          -5.355414     -7.161999     -3.155138
 140           160          -3.659474     -6.747857     -1.924433
 150           160          -2.225241     -6.848854     -.938481 
 160           160          -1.111807     -7.393544     -.193693 
 170           160          -.346057      -8.161322      .318605 
 180           160           .059843      -8.718839      .600127 
 0             170          -3.024298     -18.09792     -2.891327
 10            170          -3.221411     -18.30927     -3.088869
 20            170          -3.690836     -17.16182     -3.499807
 30            170          -4.42802      -16.06341     -4.139781
 40            170          -5.4403       -15.62633     -5.042959
 50            170          -6.752303     -15.92929     -6.256768
 60            170          -8.411236     -16.89905     -7.835904
 70            170          -10.47727     -18.292       -9.812531
 80            170          -12.89669     -19.36643     -12.01378
 90            170          -14.80569     -18.99005     -13.40199
 100           170          -14.0227      -17.31174     -12.35273
 110           170          -11.10857     -15.43879     -9.744661
 120           170          -8.113574     -13.93723     -7.104364
 130           170          -5.581343     -12.95276     -4.850865
 140           170          -3.527229     -12.51394     -3.010771
 150           170          -1.912473     -12.61453     -1.557881
 160           170          -.713529      -13.18802     -.474565 
 170           170           .078826      -14.00887      .245044 
 180           170           .467156      -14.60647      .600127 
 0             180          -2.891327     -999          -2.891327
 10            180          -3.133243     -999          -3.133243
 20            180          -3.669206     -999          -3.669206
 30            180          -4.497747     -999          -4.497747
 40            180          -5.632723     -999          -5.632723
 50            180          -7.114208     -999          -7.114208
 60            180          -9.02729      -999          -9.02729 
 70            180          -11.52721     -999          -11.52721
 80            180          -14.76668     -999          -14.76668
 90            180          -17.60463     -999          -17.60463
 100           180          -15.71152     -999          -15.71152
 110           180          -11.64831     -999          -11.64831
 120           180          -8.235468     -999          -8.235468
 130           180          -5.550111     -999          -5.550111
 140           180          -3.431315     -999          -3.431315
 150           180          -1.786576     -999          -1.786576
 160           180          -.574744      -999          -.574744 
 170           180           .219388      -999           .219388 
 180           180           .600127      -999           .600127 
 0             190          -3.024298     -18.09792     -2.891327
 10            190          -3.221411     -18.30927     -3.088869
 20            190          -3.690836     -17.16182     -3.499807
 30            190          -4.42802      -16.06341     -4.139781
 40            190          -5.4403       -15.62633     -5.042959
 50            190          -6.752303     -15.92929     -6.256768
 60            190          -8.411236     -16.89905     -7.835904
 70            190          -10.47727     -18.292       -9.812531
 80            190          -12.89669     -19.36643     -12.01378
 90            190          -14.80569     -18.99005     -13.40199
 100           190          -14.0227      -17.31174     -12.35273
 110           190          -11.10857     -15.43879     -9.744661
 120           190          -8.113574     -13.93723     -7.104364
 130           190          -5.581343     -12.95276     -4.850865
 140           190          -3.527229     -12.51394     -3.010771
 150           190          -1.912473     -12.61453     -1.557881
 160           190          -.713529      -13.18802     -.474565 
 170           190           .078826      -14.00887      .245044 
 180           190           .467156      -14.60647      .600127 
 0             200          -3.431611     -12.21029     -2.891327
 10            200          -3.48128      -12.451       -2.962914
 20            200          -3.720934     -11.41067     -3.038236
 30            200          -4.145435     -10.36612     -3.215621
 40            200          -4.754675     -9.927374     -3.602234
 50            200          -5.549207     -10.19016     -4.266886
 60            200          -6.521072     -11.08283     -5.218366
 70            200          -7.632708     -12.35226     -6.370349
 80            200          -8.765111     -13.28572     -7.451705
 90            200          -9.622155     -12.88567     -7.944019
 100           200          -9.722029     -11.30531     -7.431615
 110           200          -8.798539     -9.531831     -6.139427
 120           200          -7.173291     -8.100431     -4.601867
 130           200          -5.355414     -7.161999     -3.155138
 140           200          -3.659474     -6.747857     -1.924433
 150           200          -2.225241     -6.848854     -.938481 
 160           200          -1.111807     -7.393544     -.193693 
 170           200          -.346057      -8.161322      .318605 
 180           200           .059843      -8.718839      .600127 
 0             210          -4.140715     -8.911927     -2.891327
 10            210          -3.899551     -9.192648     -2.774874
 20            210          -3.674787     -8.324785     -2.394778
 30            210          -3.519789     -7.377413     -2.023365
 40            210          -3.478396     -6.943336     -1.863805
 50            210          -3.572503     -7.142674     -1.990313
 60            210          -3.799255     -7.906764     -2.374193
 70            210          -4.132302     -8.972523     -2.900065
 80            210          -4.522053     -9.686193     -3.367615
 90            210          -4.893044     -9.252733     -3.537063
 100           210          -5.142744     -7.82541      -3.269851
 110           210          -5.156106     -6.213074     -2.642214
 120           210          -4.850816     -4.896789     -1.863442
 130           210          -4.233188     -4.032258     -1.121261
 140           210          -3.406726     -3.654956     -.518768 
 150           210          -2.519742     -3.751859     -.081951 
 160           210          -1.707103     -4.245543      .216859 
 170           210          -1.064678     -4.926478      .430529 
 180           210          -.64926       -5.420473      .600127 
 0             220          -5.206248     -6.729977     -2.891327
 10            220          -4.456391     -7.048722     -2.551639
 20            220          -3.477158     -6.404878     -1.688544
 30            220          -2.553065     -5.604908     -.805956 
 40            220          -1.819805     -5.191614     -.176083 
 50            220          -1.312067     -5.308843      .144256 
 60            220          -1.017247     -5.893435      .206134 
 70            220          -.904844      -6.682603      .113923 
 80            220          -.940255      -7.1223       -.002967 
 90            220          -1.090763     -6.654298     -.02632  
 100           220          -1.326908     -5.420712      .101992 
 110           220          -1.619949     -4.022762      .353042 
 120           220          -1.935825     -2.863221      .635485 
 130           220          -2.227915     -2.096626      .848526 
 140           220          -2.435119     -1.762745      .924367 
 150           220          -2.495046     -1.845137      .852355 
 160           220          -2.373778     -2.262738      .692397 
 170           220          -2.091203     -2.826666      .566916 
 180           220          -1.714794     -3.238523      .600127 
 0             230          -6.729977     -5.206248     -2.891327
 10            230          -5.129284     -5.545162     -2.321947
 20            230          -3.131991     -5.149412     -1.014296
 30            230          -1.433428     -4.545981      .293667 
 40            230          -.145791      -4.178866      1.300221
 50            230           .7733        -4.201203      1.97275 
 60            230           1.386457     -4.560315      2.370424
 70            230           1.747732     -5.01975       2.57738 
 80            230           1.897554     -5.168124      2.676795
 90            230           1.862279     -4.675264      2.732796
 100           230           1.654738     -3.657893      2.774966
 110           230           1.275731     -2.513087      2.792322
 120           230           .717616      -1.545364      2.742185
 130           230          -.027507      -.895598       2.570401
 140           230          -.949291      -.605527       2.236292
 150           230          -1.979188     -.657424       1.742085
 160           230          -2.923325     -.973311       1.170521
 170           230          -3.437161     -1.397181      .711822 
 180           230          -3.238523     -1.714794      .600127 
 0             240          -8.911927     -4.140715     -2.891327
 10            240          -5.896847     -4.465318     -2.112065
 20            240          -2.736135     -4.297378     -.436675 
 30            240          -.39838       -3.916606      1.199736
 40            240           1.274454     -3.621519      2.492986
 50            240           2.458014     -3.544502      3.430737
 60            240           3.268768     -3.651289      4.072265
 70            240           3.781045     -3.770381      4.484138
 80            240           4.041086     -3.657208      4.72254 
 90            240           4.074475     -3.160527      4.826354
 100           240           3.889588     -2.36195       4.813472
 110           240           3.478816     -1.486792      4.680414
 120           240           2.818487     -.733175       4.406337
 130           240           1.868236     -.211689       3.961916
 140           240           .572446       .039638       3.324508
 150           240          -1.12322       .036248       2.505394
 160           240          -3.178556     -.157534       1.599807
 170           240          -5.08134      -.430218       .849505 
 180           240          -5.420473     -.64926        .600127 
 0             250          -12.21029     -3.431611     -2.891327
 10            250          -6.736156     -3.693408     -1.943284
 20            250          -2.42574      -3.67755       .003602 
 30            250           .378663      -3.489398      1.872047
 40            250           2.305465     -3.271455      3.367001
 50            250           3.659505     -3.104401      4.489775
 60            250           4.597724     -2.978803      5.297074
 70            250           5.207607     -2.815652      5.843353
 80            250           5.538905     -2.519795      6.169842
 90            250           5.617261     -2.050052      6.303228
 100           250           5.449936     -1.453962      6.256167
 110           250           5.027304     -.835029       6.028522
 120           250           4.321049     -.295049       5.609737
 130           250           3.278318      .098822       4.983561
 140           250           1.809108      .319851       4.138305
 150           250          -.237908       .377473       3.090973
 160           250          -3.102124      .311749       1.94226 
 170           250          -6.865395      .184351       .966213 
 180           250          -8.718839      .059843       .600127 
 0             260          -18.09792     -3.024298     -2.891327
 10            260          -7.601505     -3.166918     -1.830897
 20            260          -2.318173     -3.180223      .282456 
 30            260           .799063      -3.080924      2.28898 
 40            260           2.887848     -2.903153      3.903849
 50            260           4.350096     -2.674968      5.136034
 60            260           5.369649     -2.406342      6.039906
 70            260           6.042414     -2.092937      6.663064
 80            260           6.420585     -1.729618      7.039261
 90            260           6.530353     -1.323572      7.18955 
 100           260           6.379158     -.898536       7.124278
 110           260           5.957559     -.488753       6.84479 
 120           260           5.236886     -.128294       6.345223
 130           260           4.16127       .157766       5.615677
 140           260           2.628574      .357672       4.650192
 150           260           .443279       .473276       3.468604
 160           260          -2.81793       .517437       2.172674
 170           260          -8.252664      .509151       1.051411
 180           260          -14.60647      .467156       .600127 
 0             270          -999          -2.891327     -2.891327
 10            270          -8.373986     -2.859037     -1.783987
 20            270          -2.486335     -2.763812      .387442 
 30            270           .812065      -2.610411      2.439885
 40            270           2.994055     -2.406238      4.094507
 50            270           4.517828     -2.160651      5.363084
 60            270           5.583402     -1.884183      6.29913 
 70            270           6.292539     -1.587793      6.948027
 80            270           6.699874     -1.282235      7.341246
 90            270           6.832852     -.977574       7.498201
 100           270           6.699874     -.682889       7.428597
 110           270           6.292539     -.406108       7.134235
 120           270           5.583402     -.153964       6.610646
 130           270           4.517828      .067969       5.84981 
 140           270           2.994055      .255206       4.847349
 150           270           .812065       .404246       3.623241
 160           270          -2.486335      .512487       2.277229
 170           270          -8.373986      .578131       1.09848 
 180           270          -999           .600127       .600127 
 0             280          -18.09792     -3.024298     -2.891327
 10            280          -8.811072     -2.770684     -1.805534
 20            280          -2.949377     -2.455053      .315114 
 30            280           .395033      -2.134919      2.322035
 40            280           2.608073     -1.854338      3.936744
 50            280           4.152341     -1.63287       5.16955 
 60            280           5.233185     -1.46499       6.074964
 70            280           5.956181     -1.326402      6.700531
 80            280           6.378727     -1.185152      7.079961
 90            280           6.530347     -1.015231      7.234315
 100           280           6.421098     -.807582       7.173983
 110           280           6.044152     -.57265        6.90038 
 120           280           5.374143     -.333388       6.407689
 130           280           4.360317     -.11391        5.685876
 140           280           2.909897      .06966        4.72824 
 150           280           .847577       .212857       3.552102
 160           280          -2.196897      .321045       2.252355
 170           280          -7.159454      .40369        1.105034
 180           280          -14.60647      .467156       .600127 
 0             290          -12.21029     -3.431611     -2.891327
 10            290          -8.633186     -2.926168     -1.892514
 20            290          -3.652021     -2.328574      .070221 
 30            290          -.447417      -1.797999      1.939883
 40            290           1.72088      -1.432832      3.434513
 50            290           3.240869     -1.263277      4.558578
 60            290           4.306063     -1.263237      5.369253
 70            290           5.0219       -1.360907      5.920935
 80            290           5.448216     -1.453892      6.25475 
 90            290           5.617248     -1.443378      6.39732 
 100           290           5.541458     -1.282826      6.361281
 110           290           5.216339     -1.002551      6.146499
 120           290           4.61986      -.682897       5.742335
 130           290           3.708334     -.404015       5.132042
 140           290           2.406753     -.212158       4.302086
 150           290           .589351      -.110283       3.263907
 160           290          -1.951179     -.064352       2.104207
 170           290          -5.448049     -.021702       1.072932
 180           290          -8.718839      .059843       .600127 
 0             300          -8.911927     -4.140715     -2.891327
 10            300          -7.806092     -3.372105     -2.035925
 20            300          -4.420942     -2.481432     -.333505 
 30            300          -1.65559      -1.75359       1.305986
 40            300           .342592      -1.32491       2.598685
 50            300           1.771994     -1.222107      3.538313
 60            300           2.781341     -1.401322      4.18551 
 70            300           3.465939     -1.755644      4.607036
 80            300           3.885378     -2.113033      4.858925
 90            300           4.074454     -2.275111      4.979725
 100           300           4.048817     -2.129314      4.986865
 110           300           3.807663     -1.736531      4.876316
 120           300           3.334752     -1.269369      4.626519
 130           300           2.59835      -.886665       4.206718
 140           300           1.550988     -.671817       3.590569
 150           300           .133274      -.62749        2.779829
 160           300          -1.696904     -.685081       1.848708
 170           300          -3.813721     -.727799       1.008052
 180           300          -5.420473     -.64926        .600127 
 0             310          -6.729977     -5.206248     -2.891327
 10            310          -6.616702     -4.182315     -2.220825
 20            310          -4.951039     -3.023412     -.870844 
 30            310          -3.040581     -2.138367      .444213 
 40            310          -1.448678     -1.675293      1.449792
 50            310          -.240467      -1.645207      2.124013
 60            310           .637594      -1.990433      2.529705
 70            310           1.249252     -2.585282      2.752418
 80            310           1.645767     -3.204217      2.875595
 90            310           1.862247     -3.539447      2.962386
 100           310           1.917935     -3.385712      3.040208
 110           310           1.817609     -2.841307      3.095344
 120           310           1.553911     -2.194822      3.082356
 130           310           1.111146     -1.687673      2.943703
 140           310           .471914      -1.4359        2.632236
 150           310          -.369765      -1.444981      2.136117
 160           310          -1.38036      -1.619614      1.51196 
 170           310          -2.431735     -1.77415       .919791 
 180           310          -3.238523     -1.714794      .600127 
 0             320          -5.206248     -6.729977     -2.891327
 10            320          -5.398793     -5.475488     -2.426671
 20            320          -4.973643     -4.092637     -1.500538
 30            320          -4.201181     -3.09501      -.602672 
 40            320          -3.380466     -2.622101      .025548 
 50            320          -2.667471     -2.663898      .344616 
 60            320          -2.103033     -3.151972      .41439  
 70            320          -1.6731       -3.953177      .345106 
 80            320          -1.345921     -4.807425      .269737 
 90            320          -1.090813     -5.303968      .304954 
 100           320          -.887182      -5.129401      .500616 
 110           320          -.727879      -4.422465      .8167   
 120           320          -.61853       -3.596122      1.153312
 130           320          -.573926      -2.964447      1.403557
 140           320          -.612559      -2.666733      1.490989
 150           320          -.750127      -2.713837      1.388375
 160           320          -.992256      -2.996538      1.130514
 170           320          -1.326498     -3.269051      .820242 
 180           320          -1.714794     -3.238523      .600127 
 0             330          -4.140715     -8.911927     -2.891327
 10            330          -4.356946     -7.465218     -2.628446
 20            330          -4.536891     -5.909949     -2.159082
 30            330          -4.697365     -4.838278     -1.75695 
 40            330          -4.861836     -4.371018     -1.599197
 50            330          -5.035418     -4.477557     -1.737237
 60            330          -5.190242     -5.081062     -2.125009
 70            330          -5.265861     -6.046704     -2.628457
 80            330          -5.186442     -7.095028     -3.026423
 90            330          -4.893126     -7.729848     -3.07358 
 100           330          -4.376455     -7.530181     -2.662827
 110           330          -3.684912     -6.673571     -1.916774
 120           330          -2.904302     -5.689309     -1.066986
 130           330          -2.128523     -4.947741     -.302978 
 140           330          -1.440814     -4.602528      .270211 
 150           330          -.907567      -4.670875      .616559 
 160           330          -.578293      -5.04009       .75054  
 170           330          -.486506      -5.419531      .72299  
 180           330          -.64926       -5.420473      .600127 
 0             340          -3.431611     -12.21029     -2.891327
 10            340          -3.583149     -10.6197      -2.799109
 20            340          -3.951399     -8.943969     -2.756302
 30            340          -4.552404     -7.827752     -2.878056
 40            340          -5.397177     -7.372297     -3.263109
 50            340          -6.480378     -7.530426     -3.963443
 60            340          -7.748763     -8.219081     -4.967259
 70            340          -9.017142     -9.303898     -6.147854
 80            340          -9.835659     -10.49595     -7.14297 
 90            340          -9.6223       -11.23666     -7.344598
 100           340          -8.343819     -11.0144      -6.466689
 110           340          -6.568246     -10.03885     -4.955414
 120           340          -4.777046     -8.933152     -3.365524
 130           340          -3.185775     -8.106353     -1.97325 
 140           340          -1.874333     -7.720081     -.869695 
 150           340          -.87656       -7.79724      -.073167 
 160           340          -.212561      -8.227195      .42436  
 170           340           .102929      -8.690231      .641522 
 180           340           .059843      -8.718839      .600127 
 0             350          -3.024298     -18.09792     -2.891327
 10            350          -3.111859     -16.41847     -2.913627
 20            350          -3.50202      -14.672       -3.182348
 30            350          -4.218915     -13.53264     -3.73792 
 40            350          -5.297928     -13.08755     -4.629618
 50            350          -6.796511     -13.27897     -5.915937
 60            350          -8.807769     -14.01998     -7.664505
 70            350          -11.43052     -15.17698     -9.9014  
 80            350          -14.3036      -16.45712     -12.23792
 90            350          -14.80596     -17.26429     -12.85316
 100           350          -11.82242     -17.02665     -10.6773 
 110           350          -8.504608     -15.97507     -7.789317
 120           350          -5.7955       -14.79328     -5.280282
 130           350          -3.660086     -13.91266     -3.268523
 140           350          -2.005999     -13.49865     -1.708451
 150           350          -.781128      -13.57806     -.558834 
 160           350           .036368      -14.04335      .202886 
 170           350           .452538      -14.55909      .587391 
 180           350           .467156      -14.60647      .600127 
 0             360          -2.891327     -999          -2.891327
 10            360          -2.953996     -999          -2.953996
 20            360          -3.338121     -999          -3.338121
 30            360          -4.06831      -999          -4.06831 
 40            360          -5.184445     -999          -5.184445
 50            360          -6.759597     -999          -6.759597
 60            360          -8.936989     -999          -8.936989
 70            360          -11.99021     -999          -11.99021
 80            360          -16.11378     -999          -16.11378
 90            360          -17.605       -999          -17.605  
 100           360          -13.18282     -999          -13.18282
 110           360          -9.098911     -999          -9.098911
 120           360          -6.06837      -999          -6.06837 
 130           360          -3.77107      -999          -3.77107 
 140           360          -2.021704     -999          -2.021704
 150           360          -.735029      -999          -.735029 
 160           360           .124291      -999           .124291 
 170           360           .568422      -999           .568422 
 180           360           .600127      -999           .600127 
