                   ****************************************
                     MINI-NUMERICAL ELECTROMAGNETICS CODE
                                   MININEC
                       07-02-2022              22:43:34
                   ****************************************
 
FREQUENCY (MHZ): 28.5 
    WAVE LENGTH =  10.5193  METERS
 
ENVIRONMENT (+1 FOR FREE SPACE, -1 FOR GROUND PLANE):  1 
 
NO. OF WIRES: 22 
 
WIRE NO. 1 
            COORDINATES                                 END         NO. OF
   X             Y             Z          RADIUS     CONNECTION     SEGMENTS
-2.52984       0             0                           0 
-2.50444       0             0             .000512       0             1 
 
WIRE NO. 2 
            COORDINATES                                 END         NO. OF
   X             Y             Z          RADIUS     CONNECTION     SEGMENTS
-2.50444       0             0                           1 
-2.45364       0             0             .000512       0             1 
 
WIRE NO. 3 
            COORDINATES                                 END         NO. OF
   X             Y             Z          RADIUS     CONNECTION     SEGMENTS
-2.45364       0             0                           2 
-2.35204       0             0             .000512       0             1 
 
WIRE NO. 4 
            COORDINATES                                 END         NO. OF
   X             Y             Z          RADIUS     CONNECTION     SEGMENTS
-2.35204       0             0                           3 
-2.14884       0             0             .000512       0             1 
 
WIRE NO. 5 
            COORDINATES                                 END         NO. OF
   X             Y             Z          RADIUS     CONNECTION     SEGMENTS
-2.14884       0             0                           4 
 0             0             0             .000512       0             6 
 
WIRE NO. 6 
            COORDINATES                                 END         NO. OF
   X             Y             Z          RADIUS     CONNECTION     SEGMENTS
-2.52984       0             0                          -1 
-2.52984       0             .0254         .000512       0             1 
 
WIRE NO. 7 
            COORDINATES                                 END         NO. OF
   X             Y             Z          RADIUS     CONNECTION     SEGMENTS
-2.52984       0             .0254                       6 
-2.50444       0             .0254         .000512       0             1 
 
WIRE NO. 8 
            COORDINATES                                 END         NO. OF
   X             Y             Z          RADIUS     CONNECTION     SEGMENTS
-2.50444       0             .0254                       7 
-2.45364       0             .0254         .000512       0             1 
 
WIRE NO. 9 
            COORDINATES                                 END         NO. OF
   X             Y             Z          RADIUS     CONNECTION     SEGMENTS
-2.45364       0             .0254                       8 
-2.35204       0             .0254         .000512       0             1 
 
WIRE NO. 10 
            COORDINATES                                 END         NO. OF
   X             Y             Z          RADIUS     CONNECTION     SEGMENTS
-2.35204       0             .0254                       9 
-2.14884       0             .0254         .000512       0             1 
 
WIRE NO. 11 
            COORDINATES                                 END         NO. OF
   X             Y             Z          RADIUS     CONNECTION     SEGMENTS
-2.14884       0             .0254                       10 
 0             0             .0254         .000512       0             6 
 
WIRE NO. 12 
            COORDINATES                                 END         NO. OF
   X             Y             Z          RADIUS     CONNECTION     SEGMENTS
 2.52984       0             0                           0 
 2.50444       0             0             .000512       0             1 
 
WIRE NO. 13 
            COORDINATES                                 END         NO. OF
   X             Y             Z          RADIUS     CONNECTION     SEGMENTS
 2.50444       0             0                           12 
 2.45364       0             0             .000512       0             1 
 
WIRE NO. 14 
            COORDINATES                                 END         NO. OF
   X             Y             Z          RADIUS     CONNECTION     SEGMENTS
 2.45364       0             0                           13 
 2.35204       0             0             .000512       0             1 
 
WIRE NO. 15 
            COORDINATES                                 END         NO. OF
   X             Y             Z          RADIUS     CONNECTION     SEGMENTS
 2.35204       0             0                           14 
 2.14884       0             0             .000512       0             1 
 
WIRE NO. 16 
            COORDINATES                                 END         NO. OF
   X             Y             Z          RADIUS     CONNECTION     SEGMENTS
 2.14884       0             0                           15 
 0             0             0             .000512      -5             6 
 
WIRE NO. 17 
            COORDINATES                                 END         NO. OF
   X             Y             Z          RADIUS     CONNECTION     SEGMENTS
 2.52984       0             .0254                       0 
 2.52984       0             0             .000512       12            1 
 
WIRE NO. 18 
            COORDINATES                                 END         NO. OF
   X             Y             Z          RADIUS     CONNECTION     SEGMENTS
 2.52984       0             .0254                      -17 
 2.50444       0             .0254         .000512       0             1 
 
WIRE NO. 19 
            COORDINATES                                 END         NO. OF
   X             Y             Z          RADIUS     CONNECTION     SEGMENTS
 2.50444       0             .0254                       18 
 2.45364       0             .0254         .000512       0             1 
 
WIRE NO. 20 
            COORDINATES                                 END         NO. OF
   X             Y             Z          RADIUS     CONNECTION     SEGMENTS
 2.45364       0             .0254                       19 
 2.35204       0             .0254         .000512       0             1 
 
WIRE NO. 21 
            COORDINATES                                 END         NO. OF
   X             Y             Z          RADIUS     CONNECTION     SEGMENTS
 2.35204       0             .0254                       20 
 2.14884       0             .0254         .000512       0             1 
 
WIRE NO. 22 
            COORDINATES                                 END         NO. OF
   X             Y             Z          RADIUS     CONNECTION     SEGMENTS
 2.14884       0             .0254                       21 
 0             0             .0254         .000512      -11            6 
 
                  **** ANTENNA GEOMETRY ****
 
WIRE NO.  1  COORDINATES                                CONNECTION PULSE
X             Y             Z             RADIUS        END1 END2  NO.
-             -             -                 -          -    -    0
 
WIRE NO.  2  COORDINATES                                CONNECTION PULSE
X             Y             Z             RADIUS        END1 END2  NO.
-2.50444       0             0             .000512        1    0    1
 
WIRE NO.  3  COORDINATES                                CONNECTION PULSE
X             Y             Z             RADIUS        END1 END2  NO.
-2.45364       0             0             .000512        2    0    2
 
WIRE NO.  4  COORDINATES                                CONNECTION PULSE
X             Y             Z             RADIUS        END1 END2  NO.
-2.35204       0             0             .000512        3    0    3
 
WIRE NO.  5  COORDINATES                                CONNECTION PULSE
X             Y             Z             RADIUS        END1 END2  NO.
-2.14884       0             0             .000512        4    5    4
-1.7907        0             0             .000512        5    5    5
-1.43256       0             0             .000512        5    5    6
-1.07442       0             0             .000512        5    5    7
-.71628        0             0             .000512        5    5    8
-.35814        0             0             .000512        5    0    9
 
WIRE NO.  6  COORDINATES                                CONNECTION PULSE
X             Y             Z             RADIUS        END1 END2  NO.
-2.52984       0             0             .000512       -1    0   10
 
WIRE NO.  7  COORDINATES                                CONNECTION PULSE
X             Y             Z             RADIUS        END1 END2  NO.
-2.52984       0             .0254         .000512        6    0   11
 
WIRE NO.  8  COORDINATES                                CONNECTION PULSE
X             Y             Z             RADIUS        END1 END2  NO.
-2.50444       0             .0254         .000512        7    0   12
 
WIRE NO.  9  COORDINATES                                CONNECTION PULSE
X             Y             Z             RADIUS        END1 END2  NO.
-2.45364       0             .0254         .000512        8    0   13
 
WIRE NO.  10  COORDINATES                               CONNECTION PULSE
X             Y             Z             RADIUS        END1 END2  NO.
-2.35204       0             .0254         .000512        9    0   14
 
WIRE NO.  11  COORDINATES                               CONNECTION PULSE
X             Y             Z             RADIUS        END1 END2  NO.
-2.14884       0             .0254         .000512       10   11   15
-1.7907        0             .0254         .000512       11   11   16
-1.43256       0             .0254         .000512       11   11   17
-1.07442       0             .0254         .000512       11   11   18
-.71628        0             .0254         .000512       11   11   19
-.35814        0             .0254         .000512       11    0   20
 
WIRE NO.  12  COORDINATES                               CONNECTION PULSE
X             Y             Z             RADIUS        END1 END2  NO.
-             -             -                 -          -    -    0
 
WIRE NO.  13  COORDINATES                               CONNECTION PULSE
X             Y             Z             RADIUS        END1 END2  NO.
 2.50444       0             0             .000512       12    0   21
 
WIRE NO.  14  COORDINATES                               CONNECTION PULSE
X             Y             Z             RADIUS        END1 END2  NO.
 2.45364       0             0             .000512       13    0   22
 
WIRE NO.  15  COORDINATES                               CONNECTION PULSE
X             Y             Z             RADIUS        END1 END2  NO.
 2.35204       0             0             .000512       14    0   23
 
WIRE NO.  16  COORDINATES                               CONNECTION PULSE
X             Y             Z             RADIUS        END1 END2  NO.
 2.14884       0             0             .000512       15   16   24
 1.7907        0             0             .000512       16   16   25
 1.43256       0             0             .000512       16   16   26
 1.07442       0             0             .000512       16   16   27
 .71628        0             0             .000512       16   16   28
 .35814        0             0             .000512       16   16   29
 0             0             0             .000512       16   -5   30
 
WIRE NO.  17  COORDINATES                               CONNECTION PULSE
X             Y             Z             RADIUS        END1 END2  NO.
 2.52984       0             0             .000512        0   12   31
 
WIRE NO.  18  COORDINATES                               CONNECTION PULSE
X             Y             Z             RADIUS        END1 END2  NO.
 2.52984       0             .0254         .000512      -17    0   32
 
WIRE NO.  19  COORDINATES                               CONNECTION PULSE
X             Y             Z             RADIUS        END1 END2  NO.
 2.50444       0             .0254         .000512       18    0   33
 
WIRE NO.  20  COORDINATES                               CONNECTION PULSE
X             Y             Z             RADIUS        END1 END2  NO.
 2.45364       0             .0254         .000512       19    0   34
 
WIRE NO.  21  COORDINATES                               CONNECTION PULSE
X             Y             Z             RADIUS        END1 END2  NO.
 2.35204       0             .0254         .000512       20    0   35
 
WIRE NO.  22  COORDINATES                               CONNECTION PULSE
X             Y             Z             RADIUS        END1 END2  NO.
 2.14884       0             .0254         .000512       21   22   36
 1.7907        0             .0254         .000512       22   22   37
 1.43256       0             .0254         .000512       22   22   38
 1.07442       0             .0254         .000512       22   22   39
 .71628        0             .0254         .000512       22   22   40
 .35814        0             .0254         .000512       22   22   41
 0             0             .0254         .000512       22  -11   42
 
NO. OF SOURCES :  1 
PULSE NO., VOLTAGE MAGNITUDE, PHASE (DEGREES):  31 , 1 , 0 
NUMBER OF LOADS 0 
 
********************    SOURCE DATA     ********************
PULSE  31     VOLTAGE = ( 1 , 0 J)
              CURRENT = ( 9.921338E-07 , 1.289494E-02 J)
              IMPEDANCE = ( 5.966669E-03 ,-77.54983 J)
              POWER =  4.960669E-07  WATTS
 
********************    CURRENT DATA    ********************
 
WIRE NO.  1 :
PULSE         REAL          IMAGINARY     MAGNITUDE     PHASE
 NO.          (AMPS)        (AMPS)        (AMPS)        (DEGREES)
J              5.401964E-08  1.303599E-02  1.303599E-02  89.99975 
J             -8.164912E-07  1.303492E-02  1.303491E-02  90.00359 
 
WIRE NO.  2 :
PULSE         REAL          IMAGINARY     MAGNITUDE     PHASE
 NO.          (AMPS)        (AMPS)        (AMPS)        (DEGREES)
J             -8.164912E-07  1.303492E-02  1.303491E-02  90.00359 
J             -2.357588E-06  1.302367E-02  1.302367E-02  90.01037 
 
WIRE NO.  3 :
PULSE         REAL          IMAGINARY     MAGNITUDE     PHASE
 NO.          (AMPS)        (AMPS)        (AMPS)        (DEGREES)
J             -2.357588E-06  1.302367E-02  1.302367E-02  90.01037 
J             -5.141964E-06  1.296496E-02  1.296496E-02  90.02274 
 
WIRE NO.  4 :
PULSE         REAL          IMAGINARY     MAGNITUDE     PHASE
 NO.          (AMPS)        (AMPS)        (AMPS)        (DEGREES)
J             -5.141964E-06  1.296496E-02  1.296496E-02  90.02274 
J             -1.026288E-05  1.270508E-02  1.270508E-02  90.04629 
 
WIRE NO.  5 :
PULSE         REAL          IMAGINARY     MAGNITUDE     PHASE
 NO.          (AMPS)        (AMPS)        (AMPS)        (DEGREES)
J             -1.026288E-05  1.270508E-02  1.270508E-02  90.04629 
 5            -1.855841E-05  1.181914E-02  1.181915E-02  90.08997 
 6            -2.5745E-05    1.040963E-02  1.040966E-02  90.1417 
 7            -3.165356E-05  8.539056E-03  8.539114E-03  90.21239 
 8            -3.608086E-05  6.290246E-03  6.290348E-03  90.32864 
 9            -3.885946E-05  3.762759E-03  3.762959E-03  90.59171 
J             -3.988005E-05  1.068488E-03  1.069231E-03  92.13751 
 
WIRE NO.  6 :
PULSE         REAL          IMAGINARY     MAGNITUDE     PHASE
 NO.          (AMPS)        (AMPS)        (AMPS)        (DEGREES)
J             -5.401964E-08 -1.303599E-02  1.303599E-02 -90.00025 
J             -9.7414E-07   -1.303567E-02  1.303567E-02 -90.0043 
 
WIRE NO.  7 :
PULSE         REAL          IMAGINARY     MAGNITUDE     PHASE
 NO.          (AMPS)        (AMPS)        (AMPS)        (DEGREES)
J             -9.7414E-07   -1.303567E-02  1.303567E-02 -90.0043 
J             -1.841141E-06 -.013034       1.303399E-02 -90.0081 
 
WIRE NO.  8 :
PULSE         REAL          IMAGINARY     MAGNITUDE     PHASE
 NO.          (AMPS)        (AMPS)        (AMPS)        (DEGREES)
J             -1.841141E-06 -.013034       1.303399E-02 -90.0081 
J             -3.374909E-06 -1.302167E-02  1.302167E-02 -90.01485 
 
WIRE NO.  9 :
PULSE         REAL          IMAGINARY     MAGNITUDE     PHASE
 NO.          (AMPS)        (AMPS)        (AMPS)        (DEGREES)
J             -3.374909E-06 -1.302167E-02  1.302167E-02 -90.01485 
J             -6.141863E-06 -1.296105E-02  1.296105E-02 -90.02716 
 
WIRE NO.  10 :
PULSE         REAL          IMAGINARY     MAGNITUDE     PHASE
 NO.          (AMPS)        (AMPS)        (AMPS)        (DEGREES)
J             -6.141863E-06 -1.296105E-02  1.296105E-02 -90.02716 
J             -1.121808E-05 -1.269774E-02  1.269775E-02 -90.05063 
 
WIRE NO.  11 :
PULSE         REAL          IMAGINARY     MAGNITUDE     PHASE
 NO.          (AMPS)        (AMPS)        (AMPS)        (DEGREES)
J             -1.121808E-05 -1.269774E-02  1.269775E-02 -90.05063 
 16           -1.941977E-05 -1.180656E-02  1.180658E-02 -90.09425 
 17           -2.647311E-05 -1.039293E-02  1.039297E-02 -90.14595 
 18           -3.221474E-05 -8.519437E-03  8.519497E-03 -90.21666 
 19           -3.644888E-05 -6.269002E-03  6.269107E-03 -90.33312 
 20           -3.901702E-05 -3.741244E-03  3.741447E-03 -90.59752 
J             -3.981908E-05 -1.048066E-03  1.048822E-03 -92.17579 
 
WIRE NO.  12 :
PULSE         REAL          IMAGINARY     MAGNITUDE     PHASE
 NO.          (AMPS)        (AMPS)        (AMPS)        (DEGREES)
J              9.921338E-07  1.289494E-02  1.289493E-02  89.99558 
J              1.862655E-06  1.285329E-02  1.285329E-02  89.99169 
 
WIRE NO.  13 :
PULSE         REAL          IMAGINARY     MAGNITUDE     PHASE
 NO.          (AMPS)        (AMPS)        (AMPS)        (DEGREES)
J              1.862655E-06  1.285329E-02  1.285329E-02  89.99169 
J              3.402447E-06  1.277434E-02  1.277434E-02  89.98474 
 
WIRE NO.  14 :
PULSE         REAL          IMAGINARY     MAGNITUDE     PHASE
 NO.          (AMPS)        (AMPS)        (AMPS)        (DEGREES)
J              3.402447E-06  1.277434E-02  1.277434E-02  89.98474 
J              6.179597E-06  1.258424E-02  1.258424E-02  89.97186 
 
WIRE NO.  15 :
PULSE         REAL          IMAGINARY     MAGNITUDE     PHASE
 NO.          (AMPS)        (AMPS)        (AMPS)        (DEGREES)
J              6.179597E-06  1.258424E-02  1.258424E-02  89.97186 
J              1.127248E-05  1.206871E-02  1.206872E-02  89.94647 
 
WIRE NO.  16 :
PULSE         REAL          IMAGINARY     MAGNITUDE     PHASE
 NO.          (AMPS)        (AMPS)        (AMPS)        (DEGREES)
J              1.127248E-05  1.206871E-02  1.206872E-02  89.94647 
 25            1.950003E-05  1.076829E-02  .0107683      89.89623 
 26            2.656763E-05  8.991605E-03  8.991644E-03  89.8307 
 27            3.231347E-05  6.81718E-03   6.817256E-03  89.72842 
 28            3.654336E-05  4.341216E-03  4.34137E-03   89.5177 
 29            3.910128E-05  1.673299E-03  1.673756E-03  88.66136 
J              3.988005E-05 -1.068488E-03  1.069231E-03 -87.86249 
 
WIRE NO.  17 :
PULSE         REAL          IMAGINARY     MAGNITUDE     PHASE
 NO.          (AMPS)        (AMPS)        (AMPS)        (DEGREES)
J              6.834752E-08  1.286061E-02  1.286061E-02  89.99969 
J              9.921338E-07  1.289494E-02  1.289493E-02  89.99558 
 
WIRE NO.  18 :
PULSE         REAL          IMAGINARY     MAGNITUDE     PHASE
 NO.          (AMPS)        (AMPS)        (AMPS)        (DEGREES)
J             -6.834752E-08 -1.286061E-02  1.286061E-02 -90.00031 
J              8.054728E-07 -1.283031E-02  1.283031E-02 -89.99641 
 
WIRE NO.  19 :
PULSE         REAL          IMAGINARY     MAGNITUDE     PHASE
 NO.          (AMPS)        (AMPS)        (AMPS)        (DEGREES)
J              8.054728E-07 -1.283031E-02  1.283031E-02 -89.99641 
J              2.352175E-06 -1.275573E-02  1.275573E-02 -89.98943 
 
WIRE NO.  20 :
PULSE         REAL          IMAGINARY     MAGNITUDE     PHASE
 NO.          (AMPS)        (AMPS)        (AMPS)        (DEGREES)
J              2.352175E-06 -1.275573E-02  1.275573E-02 -89.98943 
J              5.145809E-06 -1.256941E-02  1.256941E-02 -89.97654 
 
WIRE NO.  21 :
PULSE         REAL          IMAGINARY     MAGNITUDE     PHASE
 NO.          (AMPS)        (AMPS)        (AMPS)        (DEGREES)
J              5.145809E-06 -1.256941E-02  1.256941E-02 -89.97654 
J              1.02802E-05  -.0120589      .0120589     -89.95115 
 
WIRE NO.  22 :
PULSE         REAL          IMAGINARY     MAGNITUDE     PHASE
 NO.          (AMPS)        (AMPS)        (AMPS)        (DEGREES)
J              1.02802E-05  -.0120589      .0120589     -89.95115 
 37            1.858269E-05 -1.076581E-02  1.076582E-02 -89.90109 
 38            2.576488E-05 -8.995584E-03  8.995621E-03 -89.83589 
 39            3.166025E-05 -6.826815E-03  6.826888E-03 -89.73428 
 40            3.606831E-05 -4.35558E-03   4.355729E-03 -89.52554 
 41            3.882361E-05 -1.691301E-03  1.691746E-03 -88.68501 
J              3.981908E-05  1.048066E-03  1.048822E-03  87.82421 
 
********************     FAR FIELD      ********************
 
ZENITH ANGLE : INITIAL,INCREMENT,NUMBER:  0 , 10 , 19 
AZIMUTH ANGLE: INITIAL,INCREMENT,NUMBER:  0 , 10 , 37 
 
 
FILENAME (NAME.OUT): FDP18.GNN
 
********************    PATTERN DATA    ********************
ZENITH        AZIMUTH       VERTICAL      HORIZONTAL    TOTAL
 ANGLE         ANGLE        PATTERN (DB)  PATTERN (DB)  PATTERN (DB)
 0             0            -3.010821     -999          -3.010821 
 10            0            -3.251159     -999          -3.251159 
 20            0            -3.785835     -999          -3.785835 
 30            0            -4.613474     -999          -4.613474 
 40            0            -5.747916     -999          -5.747916 
 50            0            -7.229285     -999          -7.229285 
 60            0            -9.142912     -999          -9.142912 
 70            0            -11.64454     -999          -11.64454 
 80            0            -14.88983     -999          -14.88983 
 90            0            -17.74423     -999          -17.74423 
 100           0            -15.85322     -999          -15.85322 
 110           0            -11.78176     -999          -11.78176 
 120           0            -8.365147     -999          -8.365147 
 130           0            -5.678497     -999          -5.678497 
 140           0            -3.559154     -999          -3.559154 
 150           0            -1.914219     -999          -1.914219 
 160           0            -.7023673     -999          -.7023673 
 170           0             9.176596E-02 -999           9.176596E-02 
 180           0             .4724821     -999           .4724821 
 0             10           -3.143793     -18.21761     -3.010821 
 10            10           -3.339042     -18.44057     -3.206903 
 20            10           -3.80722      -17.30315     -3.617251 
 30            10           -4.543654     -16.20816     -4.257266 
 40            10           -5.555473     -15.77211     -5.160784 
 50            10           -6.86784      -16.07467     -6.375495 
 60            10           -8.528063     -17.04255     -7.95601 
 70            10           -10.59704     -18.43092     -9.934991 
 80            10           -13.02334     -19.49553     -12.14086 
 90            10           -14.94523     -19.11046     -13.5362 
 100           10           -14.16693     -17.43121     -12.489 
 110           10           -11.24616     -15.56084     -9.878029 
 120           10           -8.246187     -14.06141     -7.235199 
 130           10           -5.711483     -13.07793     -4.980212 
 140           10           -3.656051     -12.6394      -3.139198 
 150           10           -2.040735     -12.73959     -1.685877 
 160           10           -.841507      -13.31249     -.6023441 
 170           10           -4.893337E-02 -14.13358      .1174078 
 180           10            .339509      -14.73431      .4724817 
 0             20           -3.551112     -12.32991     -3.010822 
 10            20           -3.598597     -12.58159     -3.081703 
 20            20           -3.836818     -11.55122     -3.157677 
 30            20           -4.260881     -10.51057     -3.336615 
 40            20           -4.871082     -10.07259     -3.725309 
 50            20           -5.667321     -10.3351      -4.391813 
 60            20           -6.642341     -11.22584     -5.345227 
 70            20           -7.758294     -12.49038     -6.499059 
 80            20           -8.897077     -13.41461     -7.582836 
 90            20           -9.761611     -13.00612     -8.077338 
 100           20           -9.866634     -11.42491     -7.565915 
 110           20           -8.942426     -9.653603     -6.273135 
 120           20           -7.312964     -8.224319     -4.734442 
 130           20           -5.490859     -7.286815     -3.286318 
 140           20           -3.79195      -6.873094     -2.054489 
 150           20           -2.355852     -6.9737       -1.067581 
 160           20           -1.241025     -7.517937     -.3219645 
 170           20           -.4743836     -8.286083      .1908069 
 180           20           -6.781135E-02 -8.846604      .4724794 
 0             30           -4.260225     -9.031497     -3.010822 
 10            30           -4.016233     -9.322175     -2.894454 
 20            30           -3.790869     -8.463823     -2.516676 
 30            30           -3.637112     -7.520675     -2.148201 
 40            30           -3.598153     -7.087936     -1.991226 
 50            30           -3.695655     -7.286782     -2.119818 
 60            30           -3.926118     -8.048882     -2.505286 
 70            30           -4.263292     -9.109523     -3.032507 
 80            30           -4.657268     -9.814325     -3.501146 
 90            30           -5.032425     -9.373569     -3.67143 
 100           30           -5.285664     -7.945058     -3.404569 
 110           30           -5.300934     -6.334762     -2.776821 
 120           30           -4.995126     -5.020228     -1.997321 
 130           30           -4.375018     -4.156663     -1.254131 
 140           30           -3.545052     -3.779556     -.6503829 
 150           30           -2.654238     -3.876328     -.2120998 
 160           30           -1.838726     -4.369775      8.791889E-02 
 170           30           -1.194        -5.051328      .3025429 
 180           30           -.7769234     -5.548194      .4724807 
 0             40           -5.325773     -6.84952      -3.010822 
 10            40           -4.572853     -7.17683      -2.672197 
 20            40           -3.595082     -6.541954     -1.812889 
 30            40           -2.674299     -5.74647      -.9338778 
 40            40           -1.944626     -5.334556     -.3065717 
 50            40           -1.440296     -5.451415      1.197814E-02 
 60            40           -1.148561     -6.033807      7.262786E-02 
 70            40           -1.039032     -6.817829     -2.045452E-02 
 80            40           -1.077118     -7.249755     -.1379752 
 90            40           -1.230099     -6.775752     -.1617346 
 100           40           -1.468526     -5.54077      -3.353801E-02 
 110           40           -1.76342      -4.144146      .2176842 
 120           40           -2.080472     -2.98616       .5005881 
 130           40           -2.372522     -2.220506      .7144889 
 140           40           -2.578129     -1.887073      .7914676 
 150           40           -2.6348       -1.969354      .7209937 
 160           40           -2.509161     -2.386873      .5627511 
 170           40           -2.222198     -2.951689      .438693 
 180           40           -1.84247      -3.366217      .4724807 
 0             50           -6.84952      -5.325773     -3.010822 
 10            50           -5.246308     -5.671599     -2.443411 
 20            50           -3.253301     -5.283627     -1.140545 
 30            50           -1.559227     -4.684822      .1636276 
 40            50           -.2750156     -4.319427      1.167822 
 50            50            .6412807     -4.341318      1.838809 
 60            50            1.252289     -4.698127      2.235544 
 70            50            1.611631     -5.152715      2.441849 
 80            50            1.759796     -5.294678      2.540904 
 90            50            1.722981     -4.797042      2.596712 
 100           50            1.513979     -3.778517      2.638822 
 110           50            1.133606     -2.6345        2.656346 
 120           50            .5741414     -1.667726      2.606625 
 130           50           -.171944      -1.018884      2.435537 
 140           50           -1.093984     -.7292957      2.102525 
 150           50           -2.122759     -.7813721      1.609856 
 160           50           -3.063249     -1.097511      1.040238 
 170           50           -3.5708       -1.5224        .5834025 
 180           50           -3.366216     -1.842466      .4724835 
 0             60           -9.031497     -4.260225     -3.010822 
 10            60           -6.016274     -4.589848     -2.234422 
 20            60           -2.861941     -4.427878     -.5643726 
 30            60           -.5284835     -4.051304      1.068253 
 40            60            1.141694     -3.758121      2.359317 
 50            60            2.323355     -3.680728      3.295791 
 60            60            3.132678     -3.785305      3.936551 
 70            60            3.64379      -3.900704      4.347944 
 80            60            3.902774     -3.783017      4.586069 
 90            60            3.935207     -3.283016      4.689781 
 100           60            3.749395     -2.483398      4.676904 
 110           60            3.33767      -1.608403      4.544028 
 120           60            2.676389     -.8554692      4.270347 
 130           60            1.725138     -.334697       3.82655 
 140           60            .4284353     -8.394562E-02  3.190135 
 150           60           -1.267777     -8.778623E-02  2.372509 
 160           60           -3.32212      -.2820108      1.469023 
 170           60           -5.218862     -.5558395      .7208801 
 180           60           -5.548196     -.7769205      .4724821 
 0             70           -12.32991     -3.551112     -3.010822 
 10            70           -6.860109     -3.816095     -2.066356 
 20            70           -2.556338     -3.804025     -.125191 
 30            70            .2450329     -3.618992      1.739624 
 40            70            2.170085     -3.402625      3.232563 
 50            70            3.522969     -3.235563      4.354199 
 60            70            4.460327     -3.108472      5.160851 
 70            70            5.069534     -2.943093      5.706751 
 80            70            5.400221     -2.64483       6.033027 
 90            70            5.478009     -2.173326      6.166338 
 100           70            5.310126     -1.576299      6.119348 
 110           70            4.886926     -.9574823      5.891869 
 120           70            4.180028     -.4178223      5.47344 
 130           70            3.136559     -2.445282E-02  4.847848 
 140           70            1.666452      .1961052      4.003546 
 150           70           -.3816076      .2531779      2.95771 
 160           70           -3.246681      .1866444      1.81111 
 170           70           -7.007712      5.821671E-02  .8374415 
 180           70           -8.846609     -6.781214E-02  .4724779 
 0             80           -18.21761     -3.143793     -3.010821 
 10            80           -7.732499     -3.287944     -1.954528 
 20            80           -2.453262     -3.302926      .1529893 
 30            80            .6624003     -3.205204      2.15595 
 40            80            2.750399     -3.02844       3.768968 
 50            80            4.212092     -2.80063       5.000101 
 60            80            5.231273     -2.531814      5.9034 
 70            80            5.903717     -2.217855      6.526227 
 80            80            6.281616     -1.853887      6.902268 
 90            80            6.391117     -1.447425      7.052506 
 100           80            6.239656     -1.02218       6.987304 
 110           80            5.817782     -.6125525      6.707996 
 120           80            5.09679      -.2523192      6.208781 
 130           80            4.020798      3.331081E-02  5.479802 
 140           80            2.487582      .2328252      4.515253 
 150           80            .3015601      .3478626      3.335111 
 160           80           -2.960795      .3913596      2.041318 
 170           80           -8.397257      .3823185      .9225177 
 180           80           -14.73431      .339508       .4724807 
 0             90           -145.4539     -3.010822     -3.010822 
 10            90           -8.513411     -2.978746     -1.907983 
 20            90           -2.625684     -2.883768      .2575284 
 30            90            .6727574     -2.730783      2.30654 
 40            90            2.854777     -2.527176      3.95937 
 50            90            4.378568     -2.282279      5.226973 
 60            90            5.444155     -2.006529      6.162479 
 70            90            6.153301     -1.710896      6.811075 
 80            90            6.560641     -1.406064      7.204153 
 90            90            6.69362      -1.102061      7.361089 
 100           90            6.560641     -.8080375      7.291566 
 110           90            6.153301     -.5318656      6.997401 
 120           90            5.444155     -.2802079      6.474169 
 130           90            4.378567     -5.869808E-02  5.71391 
 140           90            2.854775      .1281968      4.712371 
 150           90            .6727579      .2769348      3.489692 
 160           90           -2.625682      .3849901      2.145814 
 170           90           -8.513405      .4505188      .9695563 
 180           90           -129.8058      .4724784      .4724784 
 0             100          -18.21761     -3.143793     -3.010821 
 10            100          -8.957044     -2.889387     -1.92963 
 20            100          -3.092515     -2.57341       .1851266 
 30            100           .2532404     -2.253457      2.188626 
 40            100           2.46704      -1.973353      3.801556 
 50            100           4.011845     -1.752741      5.033398 
 60            100           5.093076     -1.585789      5.93829 
 70            100           5.816398     -1.44847       6.563568 
 80            100           6.239228     -1.308616      6.942881 
 90            100           6.391113     -1.140317      7.097224 
 100           100           6.282129     -.9342951      7.036991 
 110           100           5.905463     -.7007874      6.763607 
 120           100           5.235775     -.462532       6.271304 
 130           100           4.222333     -.2437157      5.550076 
 140           100           2.772452     -6.030259E-02  4.593391 
 150           100           .7109506      8.309335E-02  3.418696 
 160           100          -2.332049      .1918052      2.12103 
 170           100          -7.290742      .2752203      .9761672 
 180           100          -14.7343       .3395152      .4724877 
 0             110          -12.32991     -3.551112     -3.010822 
 10            110          -8.779593     -3.044165     -2.016485 
 20            110          -3.798185     -2.446336     -5.953464E-02 
 30            110          -.5915732     -1.91651       1.806627 
 40            110           1.578034     -1.551994      3.299437 
 50            110           3.099027     -1.383172      4.422522 
 60            110           4.165009     -1.383965      5.232649 
 70            110           4.881493     -1.482616      5.784057 
 80            110           5.30841      -1.577315      6.11775 
 90            110           5.478003     -1.569057      6.260333 
 100           110           5.40278      -1.411076      6.224424 
 110           110           5.078287     -1.133174      6.009907 
 120           110           4.482498     -.8151683      5.606163 
 130           110           3.571834     -.5371753      4.996509 
 140           110           2.271398     -.3453545      4.16753 
 150           110           .4556626     -.2428087      3.130791 
 160           110          -2.082087     -.1954811      1.973201 
 170           110          -5.574835     -.1511217      .9441285 
 180           110          -8.846607     -6.781214E-02  .4724784 
 0             120          -9.031497     -4.260225     -3.010822 
 10            120          -7.946697     -3.489774     -2.159625 
 20            120          -4.567833     -2.599599     -.4628199 
 30            120          -1.80174      -1.873005      1.173112 
 40            120           .1977954     -1.445098      2.463913 
 50            120           1.62859      -1.342962      3.402491 
 60            120           2.639108     -1.522669      4.04909 
 70            120           3.32474      -1.877506      4.470342 
 80            120           3.745166     -2.236439      4.722121 
 90            120           3.93519      -2.401284      4.842953 
 100           120           3.910528     -2.258998      4.850275 
 110           120           3.670431     -1.869471      4.74005 
 120           120           3.198702     -1.404542      4.490725 
 130           120           2.463725     -1.022926      4.071621 
 140           120           1.418109     -.8079555      3.456505 
 150           120           2.653052E-03 -.7625336      2.647228 
 160           120          -1.824668     -.8180981      1.718052 
 170           120          -3.938895     -.8581274      .8794575 
 180           120          -5.548194     -.7769212      .4724821 
 0             130          -6.84952      -5.325773     -3.010822 
 10            130          -6.750037     -4.299935     -2.344113 
 20            130          -5.095019     -3.142092     -.9993577 
 30            130          -3.18733      -2.25875       .3120684 
 40            130          -1.595099     -1.796871      1.315524 
 50            130          -.3856648     -1.767328      1.988556 
 60            130           .4938836     -2.112681      2.393623 
 70            130           1.106999     -2.707596      2.616041 
 80            130           1.504963     -3.327524      2.739143 
 90            130           1.722959     -3.665904      2.826002 
 100           130           1.780213     -3.516548      2.904084 
 110           130           1.681549     -2.976183      2.959617 
 120           130           1.419632     -2.332195      2.947192 
 130           130           .9788942     -1.826292      2.809296 
 140           130           .3418392     -1.57436       2.498914 
 150           130          -.4975778     -1.582156      2.00424 
 160           130          -1.506225     -1.754329      1.381833 
 170           130          -2.55699      -1.905347      .79138 
 180           130          -3.366214     -1.842466      .472484 
 0             140          -5.325773     -6.84952      -3.010822 
 10            140          -5.526696     -5.593169     -2.549467 
 20            140          -5.110862     -4.212193     -1.627986 
 30            140          -4.344729     -3.216424     -.7336997 
 40            140          -3.526747     -2.74486      -.1078932 
 50            140          -2.81401      -2.786994      .2098566 
 60            140          -2.248484     -3.275096      .2788118 
 70            140          -1.816892     -4.076103      .2091171 
 80            140          -1.487619     -4.931103      .1336795 
 90            140          -1.230134     -5.430791      .1691046 
 100           140          -1.023983     -5.261443      .3651497 
 110           140          -.8621303     -4.559043      .6817861 
 120           140          -.7502279     -3.735347      1.01913 
 130           140          -.7032402     -3.104684      1.270287 
 140           140          -.7400295     -2.806896      1.358687 
 150           140          -.876112      -2.852594      1.257464 
 160           140          -1.117607     -3.132565      1.001075 
 170           140          -1.45231      -3.400995      .6920764 
 180           140          -1.842468     -3.366216      .4724821 
 0             150          -4.260225     -9.031497     -3.010822 
 10            150          -4.481373     -7.582985     -2.75065 
 20            150          -4.667485     -6.030045     -2.285209 
 30            150          -4.833997     -4.960726     -1.886561 
 40            150          -5.00327      -4.494783     -1.731252 
 50            150          -5.180242     -4.601708     -1.871011 
 60            150          -5.336465     -5.204891     -2.259842 
 70            150          -5.411464     -6.170047     -2.763876 
 80            150          -5.329633     -7.218664     -3.161904 
 90            150          -5.032481     -7.85687      -3.208675 
 100           150          -4.511596     -7.662888     -2.797139 
 110           150          -3.816361     -6.811321     -2.050294 
 120           150          -3.032941     -5.829577     -1.199597 
 130           150          -2.255311     -5.089147     -.4347417 
 140           150          -1.566673     -4.743735      .1393953 
 150           150          -1.033141     -4.810848      .4867617 
 160           150          -.7040773     -5.17726       .6217883 
 170           150          -.6130354     -5.552132      .5950158 
 180           150          -.7769209     -5.548191      .4724826 
 0             160          -3.551113     -12.32991     -3.010822 
 10            160          -3.705687     -10.73768     -2.920871 
 20            160          -4.077522     -9.064708     -2.8811 
 30            160          -4.682337     -7.950783     -3.005745 
 40            160          -5.53111      -7.496643     -3.393281 
 50            160          -6.618686     -7.655263     -4.095783 
 60            160          -7.891112     -8.343434     -5.101048 
 70            160          -9.163004     -9.427636     -6.282967 
 80            160          -9.981058     -10.62        -7.27845 
 90            160          -9.761703     -11.36397     -7.479024 
 100           160          -8.476094     -11.14773     -6.599301 
 110           160          -6.696244     -10.17751     -5.086683 
 120           160          -4.903429     -9.074333     -3.495976 
 130           160          -3.311556     -8.248499     -2.102982 
 140           160          -2.000139     -7.861961     -.9987873 
 150           160          -1.002801     -7.937923     -.2018198 
 160           160          -.3391987     -8.365135      .2962042 
 170           160          -2.417611E-02 -8.823373      .5137323 
 180           160          -6.780951E-02 -8.846599      .4724812 
 0             170          -3.143793     -18.2176      -3.010821 
 10            170          -3.233454     -16.53663     -3.035059 
 20            170          -3.625923     -14.79318     -3.306043 
 30            170          -4.345216     -13.65622     -3.863918 
 40            170          -5.426597     -13.21246     -4.757729 
 50            170          -6.928224     -13.40427     -6.046445 
 60            170          -8.94285      -14.14477     -7.797171 
 70            170          -11.571       -15.30102     -10.03696 
 80            170          -14.44995     -16.58124     -12.37581 
 90            170          -14.94541     -17.39161     -12.98818 
 100           170          -11.95124     -17.16047     -10.80726 
 110           170          -8.630694     -16.1142      -7.917358 
 120           170          -5.921459     -14.935       -5.407983 
 130           170          -3.786465     -14.05517     -3.396274 
 140           170          -2.13274      -13.641       -1.83621 
 150           170          -.9082283     -13.71921     -.6866228 
 160           170          -9.095611E-02 -14.18181      7.515195E-02 
 170           170           .3250527     -14.69257      .4597303 
 180           170           .3395061     -14.73431      .4724789 
 0             180          -3.010822     -139.4333     -3.010822 
 10            180          -3.075266     -137.7223     -3.075266 
 20            180          -3.461423     -135.9556     -3.461423 
 30            180          -4.193514     -134.8116     -4.193514 
 40            180          -5.311472     -134.3718     -5.311472 
 50            180          -6.888927     -134.5752     -6.888927 
 60            180          -9.069141     -135.3334     -9.069141 
 70            180          -12.12674     -136.5138     -12.12674 
 80            180          -16.2585      -137.8236     -16.2585 
 90            180          -17.74443     -138.6566     -17.74443 
 100           180          -13.3102      -138.42       -13.3102 
 110           180          -9.224928     -137.3478     -9.224928 
 120           180          -6.19471      -136.1426     -6.19471 
 130           180          -3.897929     -135.2444     -3.897929 
 140           180          -2.148735     -134.8204     -2.148735 
 150           180          -.8624135     -134.8989     -.8624135 
 160           180          -3.254091E-03 -135.373      -3.254091E-03 
 170           180           .4407783     -135.9016      .4407783 
 180           180           .4724784     -135.95        .4724784 
 0             190          -3.143793     -18.21761     -3.010821 
 10            190          -3.233454     -16.53664     -3.035059 
 20            190          -3.625923     -14.79318     -3.306044 
 30            190          -4.345216     -13.65623     -3.863919 
 40            190          -5.426597     -13.21247     -4.757729 
 50            190          -6.928224     -13.40427     -6.046445 
 60            190          -8.94285      -14.14477     -7.797172 
 70            190          -11.571       -15.30103     -10.03696 
 80            190          -14.44995     -16.58124     -12.37581 
 90            190          -14.94541     -17.39162     -12.98818 
 100           190          -11.95124     -17.16047     -10.80726 
 110           190          -8.630694     -16.1142      -7.917358 
 120           190          -5.921459     -14.93501     -5.407984 
 130           190          -3.786465     -14.05517     -3.396274 
 140           190          -2.13274      -13.641       -1.83621 
 150           190          -.9082283     -13.71921     -.6866228 
 160           190          -9.095611E-02 -14.18181      7.515195E-02 
 170           190           .3250527     -14.69257      .4597303 
 180           190           .3395061     -14.73431      .4724789 
 0             200          -3.551113     -12.32991     -3.010822 
 10            200          -3.705687     -10.73769     -2.920871 
 20            200          -4.077522     -9.064711     -2.8811 
 30            200          -4.682337     -7.950784     -3.005745 
 40            200          -5.53111      -7.496644     -3.393282 
 50            200          -6.618686     -7.655265     -4.095784 
 60            200          -7.891112     -8.343436     -5.101049 
 70            200          -9.163004     -9.427636     -6.282968 
 80            200          -9.981058     -10.62        -7.278451 
 90            200          -9.761703     -11.36397     -7.479025 
 100           200          -8.476094     -11.14774     -6.599301 
 110           200          -6.696244     -10.17751     -5.086683 
 120           200          -4.903429     -9.074336     -3.495976 
 130           200          -3.311556     -8.2485       -2.102982 
 140           200          -2.000139     -7.861963     -.9987875 
 150           200          -1.002801     -7.937925     -.2018201 
 160           200          -.3391987     -8.365136      .2962042 
 170           200          -2.417611E-02 -8.823376      .5137323 
 180           200          -6.780951E-02 -8.846601      .4724812 
 0             210          -4.260225     -9.031497     -3.010822 
 10            210          -4.481373     -7.582986     -2.750651 
 20            210          -4.667485     -6.030046     -2.28521 
 30            210          -4.833997     -4.960727     -1.886562 
 40            210          -5.00327      -4.494784     -1.731252 
 50            210          -5.180242     -4.601709     -1.871011 
 60            210          -5.336465     -5.204891     -2.259842 
 70            210          -5.411464     -6.170048     -2.763876 
 80            210          -5.329633     -7.218664     -3.161904 
 90            210          -5.032481     -7.856871     -3.208675 
 100           210          -4.511596     -7.662888     -2.797139 
 110           210          -3.816361     -6.811322     -2.050294 
 120           210          -3.032941     -5.829578     -1.199597 
 130           210          -2.255311     -5.089148     -.4347419 
 140           210          -1.566673     -4.743737      .1393949 
 150           210          -1.033141     -4.810848      .4867613 
 160           210          -.7040773     -5.177261      .621788 
 170           210          -.6130354     -5.552134      .5950154 
 180           210          -.7769209     -5.548194      .4724826 
 0             220          -5.325773     -6.849521     -3.010823 
 10            220          -5.526696     -5.593169     -2.549468 
 20            220          -5.110862     -4.212195     -1.627987 
 30            220          -4.344729     -3.216425     -.733701 
 40            220          -3.526747     -2.744861     -.1078943 
 50            220          -2.81401      -2.786996      .2098561 
 60            220          -2.248484     -3.275097      .2788118 
 70            220          -1.816892     -4.076106      .2091166 
 80            220          -1.487619     -4.931106      .133679 
 90            220          -1.230134     -5.430793      .1691036 
 100           220          -1.023983     -5.261445      .3651493 
 110           220          -.8621303     -4.559044      .6817861 
 120           220          -.7502279     -3.735348      1.019129 
 130           220          -.7032402     -3.104685      1.270287 
 140           220          -.7400295     -2.806897      1.358686 
 150           220          -.876112      -2.852595      1.257463 
 160           220          -1.117607     -3.132566      1.001075 
 170           220          -1.45231      -3.400997      .6920755 
 180           220          -1.842468     -3.366217      .4724817 
 0             230          -6.849521     -5.32577      -3.010822 
 10            230          -6.750042     -4.299936     -2.344115 
 20            230          -5.09493      -3.142122     -.9993415 
 30            230          -3.187353     -2.258787      .3120376 
 40            230          -1.595091     -1.796852      1.315538 
 50            230          -.3856612     -1.767322      1.988561 
 60            230           .4938489     -2.112547      2.393648 
 70            230           1.107011     -2.707584      2.616053 
 80            230           1.504974     -3.327617      2.739129 
 90            230           1.722962     -3.665836      2.826019 
 100           230           1.780225     -3.51653       2.904097 
 110           230           1.681551     -2.976188      2.959617 
 120           230           1.419668     -2.33226       2.947199 
 130           230           .9789021     -1.826309      2.809294 
 140           230           .3418244     -1.574361      2.498904 
 150           230          -.4975854     -1.582176      2.004227 
 160           230          -1.506212     -1.754305      1.381851 
 170           230          -2.55698      -1.905333      .791392 
 180           230          -3.366216     -1.842465      .4724845 
 0             240          -9.031499     -4.260225     -3.010822 
 10            240          -7.946691     -3.489764     -2.159616 
 20            240          -4.567776     -2.599659     -.4628343 
 30            240          -1.801735     -1.872982      1.173126 
 40            240           .197782      -1.445126      2.463894 
 50            240           1.628582     -1.342976      3.402482 
 60            240           2.639112     -1.522602      4.049111 
 70            240           3.324743     -1.877531      4.470339 
 80            240           3.745163     -2.236386      4.722129 
 90            240           3.935194     -2.40132       4.84295 
 100           240           3.910529     -2.259021      4.850272 
 110           240           3.670421     -1.869455      4.740046 
 120           240           3.198694     -1.404512      4.490728 
 130           240           2.463725     -1.022931      4.07162 
 140           240           1.418101     -.8080229      3.456475 
 150           240           2.657191E-03 -.7625138      2.64724 
 160           240          -1.8247       -.8180603      1.718058 
 170           240          -3.938902     -.8581341      .8794508 
 180           240          -5.548196     -.7769205      .4724821 
 0             250          -12.32991     -3.551112     -3.010822 
 10            250          -8.779593     -3.044165     -2.016485 
 20            250          -3.798186     -2.446343     -5.953884E-02 
 30            250          -.5915749     -1.916535      1.806615 
 40            250           1.578029     -1.551974      3.299441 
 50            250           3.099026     -1.383231      4.422506 
 60            250           4.165008     -1.383978      5.232646 
 70            250           4.881491     -1.482645      5.78405 
 80            250           5.30841      -1.577268      6.117759 
 90            250           5.478003     -1.569038      6.260336 
 100           250           5.402783     -1.411064      6.224428 
 110           250           5.078291     -1.133195      6.009906 
 120           250           4.482504     -.8152176      5.606155 
 130           250           3.571833     -.5372005      4.996501 
 140           250           2.271407     -.345355       4.167536 
 150           250           .4556664     -.2427701      3.130811 
 160           250          -2.082088     -.1954811      1.973201 
 170           250          -5.574835     -.1511192      .9441302 
 180           250          -8.846607     -6.781214E-02  .4724779 
 0             260          -18.21761     -3.143793     -3.010821 
 10            260          -8.957044     -2.88938      -1.929625 
 20            260          -3.092516     -2.57341       .1851266 
 30            260           .2532404     -2.253461      2.188625 
 40            260           2.46704      -1.973346      3.801558 
 50            260           4.011845     -1.752762      5.033393 
 60            260           5.093075     -1.585761      5.938294 
 70            260           5.816398     -1.448451      6.56357 
 80            260           6.239228     -1.308649      6.942876 
 90            260           6.391113     -1.140323      7.097224 
 100           260           6.282129     -.9343105      7.036989 
 110           260           5.905464     -.7007905      6.763607 
 120           260           5.235775     -.4625403      6.271302 
 130           260           4.222333     -.2437105      5.550078 
 140           260           2.772452     -6.030916E-02  4.593389 
 150           260           .7109506      8.309791E-02  3.418698 
 160           260          -2.332049      .1918007      2.121026 
 170           260          -7.290744      .2752111      .9761589 
 180           260          -14.7343       .3395152      .4724877 
 0             270          -161.4837     -3.010822     -3.010822 
 10            270          -8.513409     -2.978718     -1.90796 
 20            270          -2.625684     -2.883741      .257542 
 30            270           .6727588     -2.730755      2.306549 
 40            270           2.854777     -2.527177      3.95937 
 50            270           4.378568     -2.282277      5.226974 
 60            270           5.444155     -2.006532      6.162479 
 70            270           6.153301     -1.710897      6.811075 
 80            270           6.560641     -1.406063      7.204153 
 90            270           6.69362      -1.102078      7.361087 
 100           270           6.560641     -.8080353      7.291568 
 110           270           6.153301     -.5318671      6.997401 
 120           270           5.444155     -.2802096      6.474169 
 130           270           4.378567     -5.870017E-02  5.71391 
 140           270           2.854775      .1281968      4.712371 
 150           270           .6727579      .2769538      3.489702 
 160           270          -2.625682      .3849878      2.145812 
 170           270          -8.513403      .450516       .9695539 
 180           270          -129.7758      .4724784      .4724784 
 0             280          -18.21761     -3.143793     -3.010821 
 10            280          -7.7325       -3.287944     -1.954529 
 20            280          -2.453262     -3.302925      .1529898 
 30            280           .6624074     -3.205171      2.155965 
 40            280           2.750399     -3.028436      3.768969 
 50            280           4.212094     -2.800629      5.000102 
 60            280           5.231273     -2.531814      5.9034 
 70            280           5.903717     -2.217904      6.526221 
 80            280           6.281616     -1.853865      6.902271 
 90            280           6.391117     -1.447414      7.052508 
 100           280           6.239656     -1.022155      6.987308 
 110           280           5.817785     -.612596       6.70799 
 120           280           5.096789     -.2523313      6.208777 
 130           280           4.020798      3.328974E-02  5.479796 
 140           280           2.487582      .2328051      4.515245 
 150           280           .3015611      .3478803      3.335121 
 160           280          -2.960795      .3913577      2.041317 
 170           280          -8.397257      .3823213      .9225202 
 180           280          -14.73431      .339508       .4724803 
 0             290          -12.32991     -3.551112     -3.010822 
 10            290          -6.860109     -3.816093     -2.066355 
 20            290          -2.556338     -3.804029     -.1251929 
 30            290           .2450388     -3.619002      1.739626 
 40            290           2.170086     -3.402641      3.23256 
 50            290           3.522969     -3.235557      4.354201 
 60            290           4.460331     -3.108425      5.160862 
 70            290           5.069536     -2.943057      5.706756 
 80            290           5.400226     -2.644874      6.033026 
 90            290           5.478009     -2.173347      6.166334 
 100           290           5.310123     -1.576296      6.119346 
 110           290           4.886923     -.9574472      5.891875 
 120           290           4.180038     -.4178424      5.473442 
 130           290           3.136557     -2.442991E-02  4.847853 
 140           290           1.666453      .1961235      4.003554 
 150           290          -.3816056      .2531906      2.957718 
 160           290          -3.246683      .186637       1.811104 
 170           290          -7.007715      5.821466E-02  .8374393 
 180           290          -8.846611     -6.781214E-02  .4724779 
 0             300          -9.031499     -4.260225     -3.010822 
 10            300          -6.016274     -4.589848     -2.234421 
 20            300          -2.861953     -4.427929     -.5644004 
 30            300          -.5284416     -4.051323      1.068276 
 40            300           1.141709     -3.758149      2.359321 
 50            300           2.323356     -3.680746      3.295789 
 60            300           3.132687     -3.785276      3.936563 
 70            300           3.643786     -3.900704      4.347939 
 80            300           3.902771     -3.783084      4.586056 
 90            300           3.935208     -3.283033      4.68978 
 100           300           3.749394     -2.483464      4.676891 
 110           300           3.337671     -1.608413      4.544027 
 120           300           2.676388     -.8554945      4.270338 
 130           300           1.725136     -.3347194      3.826541 
 140           300           .4283898     -8.393849E-02  3.190114 
 150           300          -1.26781      -8.773075E-02  2.372526 
 160           300          -3.322116     -.2820028      1.469029 
 170           300          -5.218861     -.5558363      .7208832 
 180           300          -5.548196     -.7769187      .4724835 
 0             310          -6.849521     -5.32577      -3.010822 
 10            310          -5.246294     -5.671574     -2.443392 
 20            310          -3.253291     -5.283651     -1.140549 
 30            310          -1.559221     -4.684806      .1636371 
 40            310          -.2750526     -4.319338      1.167821 
 50            310           .6412678     -4.341271      1.83881 
 60            310           1.252304     -4.698121      2.235558 
 70            310           1.611633     -5.152543      2.441881 
 80            310           1.759793     -5.294784      2.540884 
 90            310           1.722983     -4.797171      2.59669 
 100           310           1.513989     -3.778586      2.638814 
 110           310           1.133618     -2.634525      2.656347 
 120           310           .5741667     -1.667722      2.606643 
 130           310          -.1718966     -1.018937      2.435539 
 140           310          -1.094016     -.7292941      2.102511 
 150           310          -2.12274      -.7813447      1.609879 
 160           310          -3.063247     -1.097508      1.040241 
 170           310          -3.570798     -1.522394      .583407 
 180           310          -3.366217     -1.842465      .472484 
 0             320          -5.325773     -6.849519     -3.010822 
 10            320          -4.572824     -7.17679      -2.672164 
 20            320          -3.595089     -6.541963     -1.812896 
 30            320          -2.674312     -5.746354     -.9338483 
 40            320          -1.944694     -5.334519     -.3066068 
 50            320          -1.440288     -5.451384      .0119926 
 60            320          -1.148595     -6.033768      7.261209E-02 
 70            320          -1.039045     -6.817701     -2.043735E-02 
 80            320          -1.077099     -7.249687     -.1379466 
 90            320          -1.230094     -6.775713     -.1617217 
 100           320          -1.468508     -5.540811     -3.353645E-02 
 110           320          -1.763409     -4.144136      .2176951 
 120           320          -2.080529     -2.986066      .5005993 
 130           320          -2.372571     -2.220448      .7144946 
 140           320          -2.578097     -1.887138      .7914472 
 150           320          -2.634698     -1.96935       .7210431 
 160           320          -2.509157     -2.386868      .5627557 
 170           320          -2.222209     -2.951696      .4386841 
 180           320          -1.842471     -3.366215      .4724807 
 0             330          -4.260226     -9.031495     -3.010822 
 10            330          -4.016231     -9.322171     -2.894452 
 20            330          -3.790873     -8.463825     -2.51668 
 30            330          -3.637218     -7.520609     -2.148256 
 40            330          -3.59823      -7.087951     -1.991284 
 50            330          -3.695706     -7.286698     -2.119828 
 60            330          -3.926162     -8.04872      -2.505272 
 70            330          -4.263273     -9.109537     -3.032497 
 80            330          -4.657271     -9.81426      -3.501134 
 90            330          -5.032424     -9.373478     -3.671405 
 100           330          -5.285648     -7.945127     -3.404583 
 110           330          -5.30089      -6.334718     -2.776777 
 120           330          -4.995096     -5.020193     -1.997289 
 130           330          -4.375018     -4.156603     -1.2541 
 140           330          -3.545108     -3.779587     -.6504271 
 150           330          -2.654265     -3.876404     -.2121482 
 160           330          -1.838725     -4.369823      8.790267E-02 
 170           330          -1.194009     -5.051332      .3025352 
 180           330          -.7769243     -5.548191      .4724803 
 0             340          -3.551113     -12.3299      -3.010822 
 10            340          -3.598579     -12.58156     -3.081684 
 20            340          -3.836754     -11.55117     -3.157615 
 30            340          -4.260972     -10.51051     -3.336677 
 40            340          -4.871019     -10.07259     -3.725259 
 50            340          -5.667201     -10.33506     -4.391712 
 60            340          -6.642408     -11.22583     -5.345274 
 70            340          -7.75832      -12.49042     -6.499089 
 80            340          -8.897083     -13.41464     -7.582847 
 90            340          -9.761602     -13.00616     -8.077346 
 100           340          -9.866657     -11.42496     -7.56595 
 110           340          -8.942486     -9.653609     -6.273171 
 120           340          -7.312964     -8.224313     -4.734439 
 130           340          -5.490766     -7.286819     -3.286264 
 140           340          -3.791943     -6.872995     -2.054452 
 150           340          -2.355766     -6.973651     -1.067505 
 160           340          -1.241068     -7.517935     -.3219985 
 170           340          -.4743873     -8.286079      .1908044 
 180           340          -6.781214E-02 -8.846597      .4724794 
 0             350          -3.143796     -18.21759     -3.010823 
 10            350          -3.339053     -18.44057     -3.206913 
 20            350          -3.807249     -17.30315     -3.61728 
 30            350          -4.543534     -16.20824     -4.257158 
 40            350          -5.555504     -15.77212     -5.160813 
 50            350          -6.867802     -16.07466     -6.375461 
 60            350          -8.528086     -17.04259     -7.956036 
 70            350          -10.59716     -18.431       -9.935109 
 80            350          -13.02327     -19.49537     -12.14077 
 90            350          -14.94522     -19.11018     -13.53612 
 100           350          -14.16689     -17.43127     -12.489 
 110           350          -11.24616     -15.56087     -9.878038 
 120           350          -8.246107     -14.06139     -7.235131 
 130           350          -5.711445     -13.07793     -4.98018 
 140           350          -3.656043     -12.63948     -3.139199 
 150           350          -2.040738     -12.73957     -1.685879 
 160           350          -.8414655     -13.31246     -.6023027 
 170           350          -4.893153E-02 -14.13356      .1174103 
 180           350           .339508      -14.73429      .4724812 
 0             360          -3.010822     -133.4126     -3.010822 
 10            360          -3.251149     -133.625      -3.251149 
 20            360          -3.785942     -132.4515     -3.785942 
 30            360          -4.613407     -131.3395     -4.613407 
 40            360          -5.747749     -130.9045     -5.747749 
 50            360          -7.229594     -131.2208     -7.229594 
 60            360          -9.143015     -132.2146     -9.143015 
 70            360          -11.64455     -133.6441     -11.64455 
 80            360          -14.89001     -134.7573     -14.89001 
 90            360          -17.74418     -134.3804     -17.74418 
 100           360          -15.85329     -132.6676     -15.85329 
 110           360          -11.7818      -130.7636     -11.7818 
 120           360          -8.365288     -129.2406     -8.365288 
 130           360          -5.678509     -128.2417     -5.678509 
 140           360          -3.559083     -127.7943     -3.559083 
 150           360          -1.914228     -127.8939     -1.914228 
 160           360          -.7024277     -128.476      -.7024277 
 170           360           .0917913     -129.3149      .0917913 
 180           360           .4724812     -129.9293      .4724812 
