                   ****************************************
                     MINI-NUMERICAL ELECTROMAGNETICS CODE
                                   MININEC
                   ****************************************

FREQUENCY (MHZ): 28.5
    WAVE LENGTH =  10.5193  METERS

ENVIRONMENT (+1 FOR FREE SPACE, -1 FOR GROUND PLANE): +1

NO. OF GEO-OBJECTS: 22

WIRE NO. 1
            COORDINATES                                 END         NO. OF
   X             Y             Z          RADIUS     CONNECTION     SEGMENTS
-2.52984       0             0                          0
-2.50444       0             0             .000512      0              1

WIRE NO. 2
            COORDINATES                                 END         NO. OF
   X             Y             Z          RADIUS     CONNECTION     SEGMENTS
-2.50444       0             0                          1
-2.45364       0             0             .000512      0              1

WIRE NO. 3
            COORDINATES                                 END         NO. OF
   X             Y             Z          RADIUS     CONNECTION     SEGMENTS
-2.45364       0             0                          2
-2.35204       0             0             .000512      0              1

WIRE NO. 4
            COORDINATES                                 END         NO. OF
   X             Y             Z          RADIUS     CONNECTION     SEGMENTS
-2.35204       0             0                          3
-2.14884       0             0             .000512      0              1

WIRE NO. 5
            COORDINATES                                 END         NO. OF
   X             Y             Z          RADIUS     CONNECTION     SEGMENTS
-2.14884       0             0                          4
 0             0             0             .000512      0              6

WIRE NO. 6
            COORDINATES                                 END         NO. OF
   X             Y             Z          RADIUS     CONNECTION     SEGMENTS
-2.52984       0             0                         -1
-2.52984       0             .0254         .000512      0              1

WIRE NO. 7
            COORDINATES                                 END         NO. OF
   X             Y             Z          RADIUS     CONNECTION     SEGMENTS
-2.52984       0             .0254                      6
-2.50444       0             .0254         .000512      0              1

WIRE NO. 8
            COORDINATES                                 END         NO. OF
   X             Y             Z          RADIUS     CONNECTION     SEGMENTS
-2.50444       0             .0254                      7
-2.45364       0             .0254         .000512      0              1

WIRE NO. 9
            COORDINATES                                 END         NO. OF
   X             Y             Z          RADIUS     CONNECTION     SEGMENTS
-2.45364       0             .0254                      8
-2.35204       0             .0254         .000512      0              1

WIRE NO. 10
            COORDINATES                                 END         NO. OF
   X             Y             Z          RADIUS     CONNECTION     SEGMENTS
-2.35204       0             .0254                      9
-2.14884       0             .0254         .000512      0              1

WIRE NO. 11
            COORDINATES                                 END         NO. OF
   X             Y             Z          RADIUS     CONNECTION     SEGMENTS
-2.14884       0             .0254                     10
 0             0             .0254         .000512      0              6

WIRE NO. 12
            COORDINATES                                 END         NO. OF
   X             Y             Z          RADIUS     CONNECTION     SEGMENTS
 2.52984       0             0                          0
 2.50444       0             0             .000512      0              1

WIRE NO. 13
            COORDINATES                                 END         NO. OF
   X             Y             Z          RADIUS     CONNECTION     SEGMENTS
 2.50444       0             0                         12
 2.45364       0             0             .000512      0              1

WIRE NO. 14
            COORDINATES                                 END         NO. OF
   X             Y             Z          RADIUS     CONNECTION     SEGMENTS
 2.45364       0             0                         13
 2.35204       0             0             .000512      0              1

WIRE NO. 15
            COORDINATES                                 END         NO. OF
   X             Y             Z          RADIUS     CONNECTION     SEGMENTS
 2.35204       0             0                         14
 2.14884       0             0             .000512      0              1

WIRE NO. 16
            COORDINATES                                 END         NO. OF
   X             Y             Z          RADIUS     CONNECTION     SEGMENTS
 2.14884       0             0                         15
 0             0             0             .000512     -5              6

WIRE NO. 17
            COORDINATES                                 END         NO. OF
   X             Y             Z          RADIUS     CONNECTION     SEGMENTS
 2.52984       0             .0254                      0
 2.52984       0             0             .000512     12              1

WIRE NO. 18
            COORDINATES                                 END         NO. OF
   X             Y             Z          RADIUS     CONNECTION     SEGMENTS
 2.52984       0             .0254                    -17
 2.50444       0             .0254         .000512      0              1

WIRE NO. 19
            COORDINATES                                 END         NO. OF
   X             Y             Z          RADIUS     CONNECTION     SEGMENTS
 2.50444       0             .0254                     18
 2.45364       0             .0254         .000512      0              1

WIRE NO. 20
            COORDINATES                                 END         NO. OF
   X             Y             Z          RADIUS     CONNECTION     SEGMENTS
 2.45364       0             .0254                     19
 2.35204       0             .0254         .000512      0              1

WIRE NO. 21
            COORDINATES                                 END         NO. OF
   X             Y             Z          RADIUS     CONNECTION     SEGMENTS
 2.35204       0             .0254                     20
 2.14884       0             .0254         .000512      0              1

WIRE NO. 22
            COORDINATES                                 END         NO. OF
   X             Y             Z          RADIUS     CONNECTION     SEGMENTS
 2.14884       0             .0254                     21
 0             0             .0254         .000512     -11              6

                  **** ANTENNA GEOMETRY ****

WIRE NO.  1 COORDINATES                                 CONNECTION PULSE
X             Y             Z             RADIUS        END1 END2  NO.
-             -             -                 -          -    -    0   

WIRE NO.  2 COORDINATES                                 CONNECTION PULSE
X             Y             Z             RADIUS        END1 END2  NO.
-2.50444       0             0             .000512       1    0   1

WIRE NO.  3 COORDINATES                                 CONNECTION PULSE
X             Y             Z             RADIUS        END1 END2  NO.
-2.45364       0             0             .000512       2    0   2

WIRE NO.  4 COORDINATES                                 CONNECTION PULSE
X             Y             Z             RADIUS        END1 END2  NO.
-2.35204       0             0             .000512       3    0   3

WIRE NO.  5 COORDINATES                                 CONNECTION PULSE
X             Y             Z             RADIUS        END1 END2  NO.
-2.14884       0             0             .000512       4    5   4
-1.7907        0             0             .000512       5    5   5
-1.43256       0             0             .000512       5    5   6
-1.07442       0             0             .000512       5    5   7
-.71628        0             0             .000512       5    5   8
-.35814        0             0             .000512       5    0   9

WIRE NO.  6 COORDINATES                                 CONNECTION PULSE
X             Y             Z             RADIUS        END1 END2  NO.
-2.52984       0             0             .000512      -1    0  10

WIRE NO.  7 COORDINATES                                 CONNECTION PULSE
X             Y             Z             RADIUS        END1 END2  NO.
-2.52984       0             .0254         .000512       6    0  11

WIRE NO.  8 COORDINATES                                 CONNECTION PULSE
X             Y             Z             RADIUS        END1 END2  NO.
-2.50444       0             .0254         .000512       7    0  12

WIRE NO.  9 COORDINATES                                 CONNECTION PULSE
X             Y             Z             RADIUS        END1 END2  NO.
-2.45364       0             .0254         .000512       8    0  13

WIRE NO. 10 COORDINATES                                 CONNECTION PULSE
X             Y             Z             RADIUS        END1 END2  NO.
-2.35204       0             .0254         .000512       9    0  14

WIRE NO. 11 COORDINATES                                 CONNECTION PULSE
X             Y             Z             RADIUS        END1 END2  NO.
-2.14884       0             .0254         .000512      10   11  15
-1.7907        0             .0254         .000512      11   11  16
-1.43256       0             .0254         .000512      11   11  17
-1.07442       0             .0254         .000512      11   11  18
-.71628        0             .0254         .000512      11   11  19
-.35814        0             .0254         .000512      11    0  20

WIRE NO. 12 COORDINATES                                 CONNECTION PULSE
X             Y             Z             RADIUS        END1 END2  NO.
-             -             -                 -          -    -    0   

WIRE NO. 13 COORDINATES                                 CONNECTION PULSE
X             Y             Z             RADIUS        END1 END2  NO.
 2.50444       0             0             .000512      12    0  21

WIRE NO. 14 COORDINATES                                 CONNECTION PULSE
X             Y             Z             RADIUS        END1 END2  NO.
 2.45364       0             0             .000512      13    0  22

WIRE NO. 15 COORDINATES                                 CONNECTION PULSE
X             Y             Z             RADIUS        END1 END2  NO.
 2.35204       0             0             .000512      14    0  23

WIRE NO. 16 COORDINATES                                 CONNECTION PULSE
X             Y             Z             RADIUS        END1 END2  NO.
 2.14884       0             0             .000512      15   16  24
 1.7907        0             0             .000512      16   16  25
 1.43256       0             0             .000512      16   16  26
 1.07442       0             0             .000512      16   16  27
 .71628        0             0             .000512      16   16  28
 .35814        0             0             .000512      16   16  29
 0             0             0             .000512      16   -5  30

WIRE NO. 17 COORDINATES                                 CONNECTION PULSE
X             Y             Z             RADIUS        END1 END2  NO.
 2.52984       0             0             .000512       0   12  31

WIRE NO. 18 COORDINATES                                 CONNECTION PULSE
X             Y             Z             RADIUS        END1 END2  NO.
 2.52984       0             .0254         .000512     -17    0  32

WIRE NO. 19 COORDINATES                                 CONNECTION PULSE
X             Y             Z             RADIUS        END1 END2  NO.
 2.50444       0             .0254         .000512      18    0  33

WIRE NO. 20 COORDINATES                                 CONNECTION PULSE
X             Y             Z             RADIUS        END1 END2  NO.
 2.45364       0             .0254         .000512      19    0  34

WIRE NO. 21 COORDINATES                                 CONNECTION PULSE
X             Y             Z             RADIUS        END1 END2  NO.
 2.35204       0             .0254         .000512      20    0  35

WIRE NO. 22 COORDINATES                                 CONNECTION PULSE
X             Y             Z             RADIUS        END1 END2  NO.
 2.14884       0             .0254         .000512      21   22  36
 1.7907        0             .0254         .000512      22   22  37
 1.43256       0             .0254         .000512      22   22  38
 1.07442       0             .0254         .000512      22   22  39
 .71628        0             .0254         .000512      22   22  40
 .35814        0             .0254         .000512      22   22  41
 0             0             .0254         .000512      22  -11  42

NO. OF SOURCES :  1
PULSE NO., VOLTAGE MAGNITUDE, PHASE (DEGREES): 31 , 1 , 0
NUMBER OF LOADS 0

********************    SOURCE DATA     ********************
PULSE 31      VOLTAGE = ( 1 , 0 J)
              CURRENT = ( 9.604732E-07 ,  1.289252E-02 J)
              IMPEDANCE = ( 5.778424E-03 , -77.56433 J)
              POWER =  4.802366E-07  WATTS

********************    CURRENT DATA    ********************

WIRE NO.  1 :
PULSE         REAL          IMAGINARY     MAGNITUDE     PHASE
 NO.          (AMPS)        (AMPS)        (AMPS)        (DEGREES)
J              1.291205E-08  1.303358E-02  1.303358E-02  89.99994 
J             -8.564079E-07  1.303251E-02  1.303251E-02  90.00377 
WIRE NO.  2 :
PULSE         REAL          IMAGINARY     MAGNITUDE     PHASE
 NO.          (AMPS)        (AMPS)        (AMPS)        (DEGREES)
J             -8.564079E-07  1.303251E-02  1.303251E-02  90.00377 
J             -2.395355E-06  1.302126E-02  1.302126E-02  90.01054 
WIRE NO.  3 :
PULSE         REAL          IMAGINARY     MAGNITUDE     PHASE
 NO.          (AMPS)        (AMPS)        (AMPS)        (DEGREES)
J             -2.395355E-06  1.302126E-02  1.302126E-02  90.01054 
J             -5.175700E-06  1.296256E-02  1.296256E-02  90.02288 
WIRE NO.  4 :
PULSE         REAL          IMAGINARY     MAGNITUDE     PHASE
 NO.          (AMPS)        (AMPS)        (AMPS)        (DEGREES)
J             -5.175700E-06  1.296256E-02  1.296256E-02  90.02288 
J             -1.028862E-05  1.270272E-02  1.270273E-02  90.04641 
WIRE NO.  5 :
PULSE         REAL          IMAGINARY     MAGNITUDE     PHASE
 NO.          (AMPS)        (AMPS)        (AMPS)        (DEGREES)
J             -1.028862E-05  1.270272E-02  1.270273E-02  90.04641 
 5            -1.856894E-05  1.181694E-02  1.181696E-02  90.09003 
 6            -2.573974E-05  1.040770E-02  1.040773E-02  90.1417  
 7            -3.163234E-05  8.537480E-03  8.537539E-03  90.21229 
 8            -3.604415E-05  6.289097E-03  6.289200E-03  90.32837 
 9            -3.880849E-05  3.762091E-03  3.762291E-03  90.59102 
J             -3.981652E-05  1.068333E-03  1.069075E-03  92.13441 
WIRE NO.  6 :
PULSE         REAL          IMAGINARY     MAGNITUDE     PHASE
 NO.          (AMPS)        (AMPS)        (AMPS)        (DEGREES)
J             -1.291205E-08 -1.303358E-02  1.303358E-02 -90.00006 
J             -9.317769E-07 -1.303326E-02  1.303326E-02 -90.0041  
WIRE NO.  7 :
PULSE         REAL          IMAGINARY     MAGNITUDE     PHASE
 NO.          (AMPS)        (AMPS)        (AMPS)        (DEGREES)
J             -9.317769E-07 -1.303326E-02  1.303326E-02 -90.0041  
J             -1.797601E-06 -1.303158E-02  1.303158E-02 -90.0079  
WIRE NO.  8 :
PULSE         REAL          IMAGINARY     MAGNITUDE     PHASE
 NO.          (AMPS)        (AMPS)        (AMPS)        (DEGREES)
J             -1.797601E-06 -1.303158E-02  1.303158E-02 -90.0079  
J             -3.329299E-06 -1.301926E-02  1.301926E-02 -90.01465 
WIRE NO.  9 :
PULSE         REAL          IMAGINARY     MAGNITUDE     PHASE
 NO.          (AMPS)        (AMPS)        (AMPS)        (DEGREES)
J             -3.329299E-06 -1.301926E-02  1.301926E-02 -90.01465 
J             -6.092626E-06 -1.295866E-02  1.295866E-02 -90.02694 
WIRE NO. 10 :
PULSE         REAL          IMAGINARY     MAGNITUDE     PHASE
 NO.          (AMPS)        (AMPS)        (AMPS)        (DEGREES)
J             -6.092626E-06 -1.295866E-02  1.295866E-02 -90.02694 
J             -1.116253E-05 -1.269543E-02  1.269543E-02 -90.05038 
WIRE NO. 11 :
PULSE         REAL          IMAGINARY     MAGNITUDE     PHASE
 NO.          (AMPS)        (AMPS)        (AMPS)        (DEGREES)
J             -1.116253E-05 -1.269543E-02  1.269543E-02 -90.05038 
 16           -1.935656E-05 -1.180445E-02  1.180447E-02 -90.09395 
 17           -2.640510E-05 -1.039112E-02  1.039115E-02 -90.1456  
 18           -3.214491E-05 -8.518009E-03  8.518070E-03 -90.21622 
 19           -3.638020E-05 -6.268024E-03  6.268129E-03 -90.33255 
 20           -3.895219E-05 -3.740764E-03  3.740966E-03 -90.59659 
J             -3.976062E-05 -1.048108E-03  1.048862E-03 -92.17251 
WIRE NO. 12 :
PULSE         REAL          IMAGINARY     MAGNITUDE     PHASE
 NO.          (AMPS)        (AMPS)        (AMPS)        (DEGREES)
J              9.604732E-07  1.289252E-02  1.289252E-02  89.99573 
J              1.829742E-06  1.285088E-02  1.285088E-02  89.99184 
WIRE NO. 13 :
PULSE         REAL          IMAGINARY     MAGNITUDE     PHASE
 NO.          (AMPS)        (AMPS)        (AMPS)        (DEGREES)
J              1.829742E-06  1.285088E-02  1.285088E-02  89.99184 
J              3.367324E-06  1.277194E-02  1.277194E-02  89.98489 
WIRE NO. 14 :
PULSE         REAL          IMAGINARY     MAGNITUDE     PHASE
 NO.          (AMPS)        (AMPS)        (AMPS)        (DEGREES)
J              3.367324E-06  1.277194E-02  1.277194E-02  89.98489 
J              6.140544E-06  1.258186E-02  1.258186E-02  89.97204 
WIRE NO. 15 :
PULSE         REAL          IMAGINARY     MAGNITUDE     PHASE
 NO.          (AMPS)        (AMPS)        (AMPS)        (DEGREES)
J              6.140544E-06  1.258186E-02  1.258186E-02  89.97204 
J              1.122644E-05  1.206642E-02  1.206642E-02  89.94669 
WIRE NO. 16 :
PULSE         REAL          IMAGINARY     MAGNITUDE     PHASE
 NO.          (AMPS)        (AMPS)        (AMPS)        (DEGREES)
J              1.122644E-05  1.206642E-02  1.206642E-02  89.94669 
 25            1.944335E-05  1.076622E-02  1.076624E-02  89.89653 
 26            2.650266E-05  8.989865E-03  8.989904E-03  89.83109 
 27            3.224284E-05  6.815844E-03  6.815920E-03  89.72896 
 28            3.646988E-05  4.340344E-03  4.340497E-03  89.51858 
 29            3.902708E-05  1.672927E-03  1.673383E-03  88.66361 
J              3.981652E-05 -1.068333E-03  1.069075E-03 -87.86559 
WIRE NO. 17 :
PULSE         REAL          IMAGINARY     MAGNITUDE     PHASE
 NO.          (AMPS)        (AMPS)        (AMPS)        (DEGREES)
J              3.802057E-08  1.285820E-02  1.285820E-02  89.99983 
J              9.604732E-07  1.289252E-02  1.289252E-02  89.99573 
WIRE NO. 18 :
PULSE         REAL          IMAGINARY     MAGNITUDE     PHASE
 NO.          (AMPS)        (AMPS)        (AMPS)        (DEGREES)
J             -3.802057E-08 -1.285820E-02  1.285820E-02 -90.00017 
J              8.345337E-07 -1.282789E-02  1.282789E-02 -89.99627 
WIRE NO. 19 :
PULSE         REAL          IMAGINARY     MAGNITUDE     PHASE
 NO.          (AMPS)        (AMPS)        (AMPS)        (DEGREES)
J              8.345337E-07 -1.282789E-02  1.282789E-02 -89.99627 
J              2.378980E-06 -1.275330E-02  1.275330E-02 -89.98931 
WIRE NO. 20 :
PULSE         REAL          IMAGINARY     MAGNITUDE     PHASE
 NO.          (AMPS)        (AMPS)        (AMPS)        (DEGREES)
J              2.378980E-06 -1.275330E-02  1.275330E-02 -89.98931 
J              5.168438E-06 -1.256699E-02  1.256699E-02 -89.97644 
WIRE NO. 21 :
PULSE         REAL          IMAGINARY     MAGNITUDE     PHASE
 NO.          (AMPS)        (AMPS)        (AMPS)        (DEGREES)
J              5.168438E-06 -1.256699E-02  1.256699E-02 -89.97644 
J              1.029470E-05 -1.205653E-02  1.205654E-02 -89.95108 
WIRE NO. 22 :
PULSE         REAL          IMAGINARY     MAGNITUDE     PHASE
 NO.          (AMPS)        (AMPS)        (AMPS)        (DEGREES)
J              1.029470E-05 -1.205653E-02  1.205654E-02 -89.95108 
 37            1.858283E-05 -1.076364E-02  1.076365E-02 -89.90108 
 38            2.575117E-05 -8.993702E-03  8.993738E-03 -89.83595 
 39            3.163326E-05 -6.825315E-03  6.825388E-03 -89.73445 
 40            3.602871E-05 -4.354526E-03  4.354675E-03 -89.52595 
 41            3.877327E-05 -1.690740E-03  1.691184E-03 -88.68628 
J              3.976062E-05  1.048108E-03  1.048862E-03  87.82749 

********************     FAR FIELD      ********************

ZENITH ANGLE : INITIAL,INCREMENT,NUMBER: 0 , 10 , 19
AZIMUTH ANGLE: INITIAL,INCREMENT,NUMBER: 0 , 10 , 37

********************    PATTERN DATA    ********************
ZENITH        AZIMUTH       VERTICAL      HORIZONTAL    TOTAL
 ANGLE         ANGLE        PATTERN (DB)  PATTERN (DB)  PATTERN (DB)
 0             0            -2.891359     -999          -2.891359
 10            0            -3.133274     -999          -3.133274
 20            0            -3.669236     -999          -3.669236
 30            0            -4.497777     -999          -4.497777
 40            0            -5.632752     -999          -5.632752
 50            0            -7.114235     -999          -7.114235
 60            0            -9.027316     -999          -9.027316
 70            0            -11.52723     -999          -11.52723
 80            0            -14.7667      -999          -14.7667 
 90            0            -17.60466     -999          -17.60466
 100           0            -15.71157     -999          -15.71157
 110           0            -11.64835     -999          -11.64835
 120           0            -8.235506     -999          -8.235506
 130           0            -5.550148     -999          -5.550148
 140           0            -3.43135      -999          -3.43135 
 150           0            -1.786611     -999          -1.786611
 160           0            -.574779      -999          -.574779 
 170           0             .219354      -999           .219354 
 180           0             .600093      -999           .600093 
 0             10           -3.02433      -18.09795     -2.891359
 10            10           -3.221442     -18.30931     -3.0889  
 20            10           -3.690865     -17.16187     -3.499837
 30            10           -4.428049     -16.06345     -4.13981 
 40            10           -5.440327     -15.62637     -5.042988
 50            10           -6.752329     -15.92933     -6.256796
 60            10           -8.411262     -16.89909     -7.835931
 70            10           -10.47729     -18.29204     -9.812558
 80            10           -12.89672     -19.36647     -12.01381
 90            10           -14.80572     -18.99008     -13.40202
 100           10           -14.02274     -17.31177     -12.35276
 110           10           -11.10861     -15.43881     -9.744699
 120           10           -8.113613     -13.93725     -7.1044  
 130           10           -5.581381     -12.95279     -4.850901
 140           10           -3.527265     -12.51396     -3.010806
 150           10           -1.912508     -12.61455     -1.557916
 160           10           -.713564      -13.18804     -.474599 
 170           10            .078791      -14.0089       .24501  
 180           10            .467123      -14.6065       .600093 
 0             20           -3.431642     -12.21033     -2.891359
 10            20           -3.48131      -12.45104     -2.962945
 20            20           -3.720962     -11.41071     -3.038266
 30            20           -4.145462     -10.36616     -3.215651
 40            20           -4.754701     -9.927413     -3.602263
 50            20           -5.549232     -10.1902      -4.266915
 60            20           -6.521097     -11.08287     -5.218395
 70            20           -7.632733     -12.3523      -6.370377
 80            20           -8.765137     -13.28576     -7.451734
 90            20           -9.622185     -12.88571     -7.94405 
 100           20           -9.722064     -11.30534     -7.431647
 110           20           -8.798579     -9.531857     -6.13946 
 120           20           -7.173331     -8.100457     -4.601901
 130           20           -5.355453     -7.162025     -3.155172
 140           20           -3.659512     -6.747883     -1.924467
 150           20           -2.225278     -6.848881     -.938515 
 160           20           -1.111843     -7.393573     -.193727 
 170           20           -.346092      -8.161353      .318571 
 180           20            .059809      -8.718873      .600093 
 0             30           -4.140746     -8.911959     -2.891359
 10            30           -3.89958      -9.192685     -2.774905
 20            30           -3.674814     -8.324825     -2.394808
 30            30           -3.519814     -7.377453     -2.023395
 40            30           -3.478421     -6.943376     -1.863834
 50            30           -3.572528     -7.142714     -1.990342
 60            30           -3.79928      -7.906804     -2.374223
 70            30           -4.132329     -8.972563     -2.900094
 80            30           -4.52208      -9.686231     -3.367645
 90            30           -4.893074     -9.252766     -3.537093
 100           30           -5.142777     -7.825439     -3.269883
 110           30           -5.156142     -6.213101     -2.642246
 120           30           -4.850855     -4.896815     -1.863474
 130           30           -4.233228     -4.032285     -1.121294
 140           30           -3.406765     -3.654983     -.518801 
 150           30           -2.51978      -3.751887     -.081985 
 160           30           -1.70714      -4.245571      .216826 
 170           30           -1.064713     -4.926509      .430495 
 180           30           -.649294      -5.420507      .600093 
 0             40           -5.206279     -6.730009     -2.891359
 10            40           -4.456418     -7.048759     -2.55167 
 20            40           -3.477183     -6.404918     -1.688574
 30            40           -2.55309      -5.604948     -.805986 
 40            40           -1.81983      -5.191654     -.176113 
 50            40           -1.312093     -5.308883      .144226 
 60            40           -1.017273     -5.893475      .206104 
 70            40           -.904871      -6.682642      .113893 
 80            40           -.940283      -7.122337     -.002997 
 90            40           -1.090793     -6.654331     -.02635  
 100           40           -1.32694      -5.420741      .101961 
 110           40           -1.619982     -4.02279       .353011 
 120           40           -1.93586      -2.863248      .635453 
 130           40           -2.227952     -2.096653      .848494 
 140           40           -2.435158     -1.762773      .924334 
 150           40           -2.495084     -1.845165      .852322 
 160           40           -2.373816     -2.262767      .692364 
 170           40           -2.091239     -2.826697      .566882 
 180           40           -1.714827     -3.238557      .600093 
 0             50           -6.730009     -5.206279     -2.891359
 10            50           -5.129311     -5.545199     -2.321978
 20            50           -3.132016     -5.149451     -1.014327
 30            50           -1.433454     -4.546021      .293637 
 40            50           -.145817      -4.178906      1.300191
 50            50            .773273      -4.201243      1.97272 
 60            50            1.38643      -4.560354      2.370394
 70            50            1.747704     -5.019789      2.57735 
 80            50            1.897525     -5.16816       2.676765
 90            50            1.862249     -4.675297      2.732766
 100           50            1.654707     -3.657923      2.774936
 110           50            1.275699     -2.513115      2.792291
 120           50            .717583      -1.545392      2.742153
 130           50           -.027542      -.895626       2.570369
 140           50           -.949327      -.605555       2.23626 
 150           50           -1.979226     -.657453       1.742053
 160           50           -2.923364     -.973341       1.170487
 170           50           -3.437198     -1.397212      .711788 
 180           50           -3.238557     -1.714827      .600093 
 0             60           -8.911959     -4.140746     -2.891359
 10            60           -5.896872     -4.465353     -2.112096
 20            60           -2.73616      -4.297416     -.436705 
 30            60           -.398406      -3.916646      1.199706
 40            60            1.274427     -3.621558      2.492956
 50            60            2.457986     -3.544542      3.430707
 60            60            3.268739     -3.651328      4.072235
 70            60            3.781016     -3.770419      4.484108
 80            60            4.041056     -3.657244      4.72251 
 90            60            4.074445     -3.16056       4.826324
 100           60            3.889557     -2.361981      4.813442
 110           60            3.478785     -1.486821      4.680383
 120           60            2.818455     -.733204       4.406306
 130           60            1.868203     -.211718       3.961885
 140           60            .572411       .039609       3.324476
 150           60           -1.123255      .036219       2.505362
 160           60           -3.178593     -.157565       1.599774
 170           60           -5.081378     -.43025        .849471 
 180           60           -5.420507     -.649294       .600093 
 0             70           -12.21033     -3.431642     -2.891359
 10            70           -6.73618      -3.693442     -1.943315
 20            70           -2.425767     -3.677586      .003571 
 30            70            .378635      -3.489436      1.872016
 40            70            2.305437     -3.271493      3.366971
 50            70            3.659477     -3.104439      4.489745
 60            70            4.597695     -2.978841      5.297044
 70            70            5.207578     -2.815688      5.843323
 80            70            5.538876     -2.51983       6.169811
 90            70            5.617231     -2.050085      6.303197
 100           70            5.449906     -1.453994      6.256137
 110           70            5.027274     -.835059       6.028492
 120           70            4.321018     -.295079       5.609707
 130           70            3.278287      .098792       4.98353 
 140           70            1.809075      .319821       4.138273
 150           70           -.237941       .377443       3.090941
 160           70           -3.102159      .311717       1.942227
 170           70           -6.865433      .184318       .96618  
 180           70           -8.718873      .059809       .600093 
 0             80           -18.09795     -3.02433      -2.891359
 10            80           -7.601532     -3.166951     -1.830928
 20            80           -2.318201     -3.180257      .282425 
 30            80            .799034      -3.080959      2.288949
 40            80            2.887819     -2.903188      3.903819
 50            80            4.350066     -2.675003      5.136004
 60            80            5.36962      -2.406377      6.039876
 70            80            6.042384     -2.092971      6.663034
 80            80            6.420555     -1.729652      7.03923 
 90            80            6.530323     -1.323605      7.18952 
 100           80            6.379127     -.898569       7.124247
 110           80            5.957529     -.488785       6.844759
 120           80            5.236856     -.128326       6.345192
 130           80            4.161239      .157735       5.615646
 140           80            2.628543      .35764        4.650161
 150           80            .443248       .473244       3.468572
 160           80           -2.817963      .517404       2.172642
 170           80           -8.2527        .509118       1.051378
 180           80           -14.6065       .467123       .600093 
 0             90           -999          -2.891359     -2.891359
 10            90           -8.374016     -2.859069     -1.784019
 20            90           -2.486365     -2.763843      .387411 
 30            90            .812035      -2.610443      2.439854
 40            90            2.994025     -2.40627       4.094477
 50            90            4.517798     -2.160683      5.363054
 60            90            5.583372     -1.884215      6.2991  
 70            90            6.292509     -1.587826      6.947996
 80            90            6.699844     -1.282267      7.341216
 90            90            6.832822     -.977607       7.498171
 100           90            6.699844     -.682922       7.428566
 110           90            6.292509     -.406141       7.134205
 120           90            5.583372     -.153998       6.610615
 130           90            4.517798      .067935       5.84978 
 140           90            2.994025      .255172       4.847318
 150           90            .812035       .404213       3.623209
 160           90           -2.486365      .512453       2.277196
 170           90           -8.374016      .578097       1.098447
 180           90           -999           .600093       .600093 
 0             100          -18.09795     -3.02433      -2.891359
 10            100          -8.811107     -2.770714     -1.805565
 20            100          -2.949409     -2.455083      .315083 
 30            100           .395001      -2.134948      2.322005
 40            100           2.608042     -1.854367      3.936713
 50            100           4.15231      -1.632899      5.16952 
 60            100           5.233154     -1.46502       6.074934
 70            100           5.956151     -1.326433      6.7005  
 80            100           6.378697     -1.185184      7.079931
 90            100           6.530317     -1.015264      7.234284
 100           100           6.421068     -.807616       7.173952
 110           100           6.044122     -.572685       6.90035 
 120           100           5.374114     -.333423       6.407658
 130           100           4.360287     -.113946       5.685845
 140           100           2.909868      .069624       4.728209
 150           100           .847548       .212822       3.552071
 160           100          -2.196926      .32101        2.252322
 170           100          -7.159481      .403656       1.105   
 180           100          -14.6065       .467123       .600093 
 0             110          -12.21033     -3.431642     -2.891359
 10            110          -8.633225     -2.926197     -1.892545
 20            110          -3.652056     -2.328602      .07019  
 30            110          -.44745       -1.798026      1.939852
 40            110           1.720848     -1.43286       3.434482
 50            110           3.240837     -1.263305      4.558548
 60            110           4.306032     -1.263266      5.369223
 70            110           5.021869     -1.360936      5.920905
 80            110           5.448186     -1.453923      6.25472 
 90            110           5.617218     -1.44341       6.397289
 100           110           5.541428     -1.282861      6.36125 
 110           110           5.21631      -1.002587      6.146468
 120           110           4.619831     -.682933       5.742304
 130           110           3.708305     -.404052       5.132011
 140           110           2.406725     -.212195       4.302055
 150           110           .589323      -.110319       3.263875
 160           110          -1.951206     -.064388       2.104174
 170           110          -5.448076     -.021737       1.072899
 180           110          -8.718873      .059809       .600093 
 0             120          -8.911959     -4.140746     -2.891359
 10            120          -7.806132     -3.372134     -2.035957
 20            120          -4.42098      -2.481459     -.333536 
 30            120          -1.655626     -1.753616      1.305955
 40            120           .342558      -1.324936      2.598654
 50            120           1.771961     -1.222134      3.538282
 60            120           2.781309     -1.401349      4.18548 
 70            120           3.465908     -1.755672      4.607005
 80            120           3.885347     -2.113064      4.858894
 90            120           4.074424     -2.275143      4.979694
 100           120           4.048787     -2.129349      4.986834
 110           120           3.807633     -1.736568      4.876286
 120           120           3.334723     -1.269406      4.626488
 130           120           2.598322     -.886702       4.206687
 140           120           1.55096      -.671854       3.590538
 150           120           .133246      -.627527       2.779797
 160           120          -1.696931     -.685117       1.848676
 170           120          -3.81375      -.727834       1.008019
 180           120          -5.420507     -.649294       .600093 
 0             130          -6.730009     -5.206279     -2.891359
 10            130          -6.616741     -4.182342     -2.220857
 20            130          -4.951079     -3.023438     -.870876 
 30            130          -3.040619     -2.138392      .444182 
 40            130          -1.448714     -1.675319      1.449761
 50            130          -.240501      -1.645233      2.123982
 60            130           .637561      -1.99046       2.529674
 70            130           1.24922      -2.58531       2.752387
 80            130           1.645737     -3.204247      2.875565
 90            130           1.862217     -3.53948       2.962355
 100           130           1.917906     -3.385747      3.040177
 110           130           1.81758      -2.841344      3.095313
 120           130           1.553883     -2.19486       3.082325
 130           130           1.111119     -1.68771       2.943672
 140           130           .471887      -1.435938      2.632204
 150           130          -.369793      -1.445018      2.136085
 160           130          -1.380389     -1.619651      1.511927
 170           130          -2.431765     -1.774186      .919758 
 180           130          -3.238557     -1.714827      .600093 
 0             140          -5.206279     -6.730009     -2.891359
 10            140          -5.398829     -5.475515     -2.426703
 20            140          -4.973682     -4.092662     -1.50057 
 30            140          -4.201221     -3.095035     -.602703 
 40            140          -3.380505     -2.622126      .025517 
 50            140          -2.667507     -2.663924      .344585 
 60            140          -2.103067     -3.151998      .414359 
 70            140          -1.673133     -3.953205      .345075 
 80            140          -1.345952     -4.807454      .269706 
 90            140          -1.090843     -5.304001      .304923 
 100           140          -.887211      -5.129436      .500585 
 110           140          -.727907      -4.422502      .81667  
 120           140          -.618558      -3.59616       1.153281
 130           140          -.573954      -2.964485      1.403526
 140           140          -.612587      -2.66677       1.490957
 150           140          -.750155      -2.713875      1.388342
 160           140          -.992286      -2.996576      1.130481
 170           140          -1.326529     -3.269088      .820209 
 180           140          -1.714827     -3.238557      .600093 
 0             150          -4.140746     -8.911959     -2.891359
 10            150          -4.356981     -7.465245     -2.628478
 20            150          -4.536928     -5.909975     -2.159114
 30            150          -4.697403     -4.838304     -1.756982
 40            150          -4.861875     -4.371043     -1.599229
 50            150          -5.035457     -4.477583     -1.737268
 60            150          -5.190279     -5.081088     -2.125041
 70            150          -5.265896     -6.046731     -2.628488
 80            150          -5.186474     -7.095057     -3.026454
 90            150          -4.893156     -7.729881     -3.073611
 100           150          -4.376484     -7.530216     -2.662858
 110           150          -3.684939     -6.673609     -1.916805
 120           150          -2.90433      -5.689347     -1.067017
 130           150          -2.128552     -4.947778     -.303009 
 140           150          -1.440844     -4.602566      .270179 
 150           150          -.907597      -4.670913      .616527 
 160           150          -.578324      -5.040127      .750507 
 170           150          -.486538      -5.419567      .722957 
 180           150          -.649294      -5.420507      .600093 
 0             160          -3.431642     -12.21033     -2.891359
 10            160          -3.583182     -10.61972     -2.799141
 20            160          -3.951434     -8.943995     -2.756335
 30            160          -4.55244      -7.827777     -2.878089
 40            160          -5.397215     -7.372323     -3.263142
 50            160          -6.480416     -7.530451     -3.963476
 60            160          -7.748802     -8.219107     -4.967291
 70            160          -9.017179     -9.303925     -6.147886
 80            160          -9.835693     -10.49598     -7.143002
 90            160          -9.62233      -11.2367      -7.34463 
 100           160          -8.343847     -11.01444     -6.46672 
 110           160          -6.568274     -10.03889     -4.955445
 120           160          -4.777075     -8.933189     -3.365555
 130           160          -3.185805     -8.106391     -1.973282
 140           160          -1.874364     -7.720118     -.869727 
 150           160          -.876592      -7.797278     -.0732   
 160           160          -.212593      -8.227232      .424327 
 170           160           .102896      -8.690267      .641489 
 180           160           .059809      -8.718873      .600093 
 0             170          -3.02433      -18.09795     -2.891359
 10            170          -3.111892     -16.41849     -2.913659
 20            170          -3.502053     -14.67203     -3.182381
 30            170          -4.218949     -13.53267     -3.737954
 40            170          -5.297963     -13.08757     -4.629651
 50            170          -6.796546     -13.279       -5.915971
 60            170          -8.807806     -14.02001     -7.664539
 70            170          -11.43056     -15.177       -9.901434
 80            170          -14.30363     -16.45715     -12.23795
 90            170          -14.80599     -17.26432     -12.85319
 100           170          -11.82245     -17.02669     -10.67734
 110           170          -8.504638     -15.97511     -7.789348
 120           170          -5.79553      -14.79332     -5.280314
 130           170          -3.660117     -13.9127      -3.268555
 140           170          -2.006031     -13.49869     -1.708484
 150           170          -.781161      -13.5781      -.558866 
 160           170           .036335      -14.04339      .202853 
 170           170           .452504      -14.55913      .587357 
 180           170           .467123      -14.6065       .600093 
 0             180          -2.891359     -999          -2.891359
 10            180          -2.954028     -999          -2.954028
 20            180          -3.338154     -999          -3.338154
 30            180          -4.068343     -999          -4.068343
 40            180          -5.184479     -999          -5.184479
 50            180          -6.759631     -999          -6.759631
 60            180          -8.937024     -999          -8.937024
 70            180          -11.99025     -999          -11.99025
 80            180          -16.11382     -999          -16.11382
 90            180          -17.60503     -999          -17.60503
 100           180          -13.18285     -999          -13.18285
 110           180          -9.098942     -999          -9.098942
 120           180          -6.068402     -999          -6.068402
 130           180          -3.771102     -999          -3.771102
 140           180          -2.021737     -999          -2.021737
 150           180          -.735062      -999          -.735062 
 160           180           .124258      -999           .124258 
 170           180           .568389      -999           .568389 
 180           180           .600093      -999           .600093 
 0             190          -3.02433      -18.09795     -2.891359
 10            190          -3.111892     -16.41849     -2.913659
 20            190          -3.502053     -14.67203     -3.182381
 30            190          -4.218949     -13.53267     -3.737954
 40            190          -5.297963     -13.08757     -4.629651
 50            190          -6.796546     -13.279       -5.915971
 60            190          -8.807806     -14.02001     -7.664539
 70            190          -11.43056     -15.177       -9.901434
 80            190          -14.30363     -16.45715     -12.23795
 90            190          -14.80599     -17.26432     -12.85319
 100           190          -11.82245     -17.02669     -10.67734
 110           190          -8.504638     -15.97511     -7.789348
 120           190          -5.79553      -14.79332     -5.280314
 130           190          -3.660117     -13.9127      -3.268555
 140           190          -2.006031     -13.49869     -1.708484
 150           190          -.781161      -13.5781      -.558866 
 160           190           .036335      -14.04339      .202853 
 170           190           .452504      -14.55913      .587357 
 180           190           .467123      -14.6065       .600093 
 0             200          -3.431642     -12.21033     -2.891359
 10            200          -3.583182     -10.61972     -2.799141
 20            200          -3.951434     -8.943995     -2.756335
 30            200          -4.55244      -7.827777     -2.878089
 40            200          -5.397215     -7.372323     -3.263142
 50            200          -6.480416     -7.530451     -3.963476
 60            200          -7.748802     -8.219107     -4.967291
 70            200          -9.017179     -9.303925     -6.147886
 80            200          -9.835693     -10.49598     -7.143002
 90            200          -9.62233      -11.2367      -7.34463 
 100           200          -8.343847     -11.01444     -6.46672 
 110           200          -6.568274     -10.03889     -4.955445
 120           200          -4.777075     -8.933189     -3.365555
 130           200          -3.185805     -8.106391     -1.973282
 140           200          -1.874364     -7.720118     -.869727 
 150           200          -.876592      -7.797278     -.0732   
 160           200          -.212593      -8.227232      .424327 
 170           200           .102896      -8.690267      .641489 
 180           200           .059809      -8.718873      .600093 
 0             210          -4.140746     -8.911959     -2.891359
 10            210          -4.356981     -7.465245     -2.628478
 20            210          -4.536928     -5.909975     -2.159114
 30            210          -4.697403     -4.838304     -1.756982
 40            210          -4.861875     -4.371043     -1.599229
 50            210          -5.035457     -4.477583     -1.737268
 60            210          -5.190279     -5.081088     -2.125041
 70            210          -5.265896     -6.046731     -2.628488
 80            210          -5.186474     -7.095057     -3.026454
 90            210          -4.893156     -7.729881     -3.073611
 100           210          -4.376484     -7.530216     -2.662858
 110           210          -3.684939     -6.673609     -1.916805
 120           210          -2.90433      -5.689347     -1.067017
 130           210          -2.128552     -4.947778     -.303009 
 140           210          -1.440844     -4.602566      .270179 
 150           210          -.907597      -4.670913      .616527 
 160           210          -.578324      -5.040127      .750507 
 170           210          -.486538      -5.419567      .722957 
 180           210          -.649294      -5.420507      .600093 
 0             220          -5.206279     -6.730009     -2.891359
 10            220          -5.398829     -5.475515     -2.426703
 20            220          -4.973682     -4.092662     -1.50057 
 30            220          -4.201221     -3.095035     -.602703 
 40            220          -3.380505     -2.622126      .025517 
 50            220          -2.667507     -2.663924      .344585 
 60            220          -2.103067     -3.151998      .414359 
 70            220          -1.673133     -3.953205      .345075 
 80            220          -1.345952     -4.807454      .269706 
 90            220          -1.090843     -5.304001      .304923 
 100           220          -.887211      -5.129436      .500585 
 110           220          -.727907      -4.422502      .81667  
 120           220          -.618558      -3.59616       1.153281
 130           220          -.573954      -2.964485      1.403526
 140           220          -.612587      -2.66677       1.490957
 150           220          -.750155      -2.713875      1.388342
 160           220          -.992286      -2.996576      1.130481
 170           220          -1.326529     -3.269088      .820209 
 180           220          -1.714827     -3.238557      .600093 
 0             230          -6.730009     -5.206279     -2.891359
 10            230          -6.616741     -4.182342     -2.220857
 20            230          -4.951079     -3.023438     -.870876 
 30            230          -3.040619     -2.138392      .444182 
 40            230          -1.448714     -1.675319      1.449761
 50            230          -.240501      -1.645233      2.123982
 60            230           .637561      -1.99046       2.529674
 70            230           1.24922      -2.58531       2.752387
 80            230           1.645737     -3.204247      2.875565
 90            230           1.862217     -3.53948       2.962355
 100           230           1.917906     -3.385747      3.040177
 110           230           1.81758      -2.841344      3.095313
 120           230           1.553883     -2.19486       3.082325
 130           230           1.111119     -1.68771       2.943672
 140           230           .471887      -1.435938      2.632204
 150           230          -.369793      -1.445018      2.136085
 160           230          -1.380389     -1.619651      1.511927
 170           230          -2.431765     -1.774186      .919758 
 180           230          -3.238557     -1.714827      .600093 
 0             240          -8.911959     -4.140746     -2.891359
 10            240          -7.806132     -3.372134     -2.035957
 20            240          -4.42098      -2.481459     -.333536 
 30            240          -1.655626     -1.753616      1.305955
 40            240           .342558      -1.324936      2.598654
 50            240           1.771961     -1.222134      3.538282
 60            240           2.781309     -1.401349      4.18548 
 70            240           3.465908     -1.755672      4.607005
 80            240           3.885347     -2.113064      4.858894
 90            240           4.074424     -2.275143      4.979694
 100           240           4.048787     -2.129349      4.986834
 110           240           3.807633     -1.736568      4.876286
 120           240           3.334723     -1.269406      4.626488
 130           240           2.598322     -.886702       4.206687
 140           240           1.55096      -.671854       3.590538
 150           240           .133246      -.627527       2.779797
 160           240          -1.696931     -.685117       1.848676
 170           240          -3.81375      -.727834       1.008019
 180           240          -5.420507     -.649294       .600093 
 0             250          -12.21033     -3.431642     -2.891359
 10            250          -8.633225     -2.926197     -1.892545
 20            250          -3.652056     -2.328602      .07019  
 30            250          -.44745       -1.798026      1.939852
 40            250           1.720848     -1.43286       3.434482
 50            250           3.240837     -1.263305      4.558548
 60            250           4.306032     -1.263266      5.369223
 70            250           5.021869     -1.360936      5.920905
 80            250           5.448186     -1.453923      6.25472 
 90            250           5.617218     -1.44341       6.397289
 100           250           5.541428     -1.282861      6.36125 
 110           250           5.21631      -1.002587      6.146468
 120           250           4.619831     -.682933       5.742304
 130           250           3.708305     -.404052       5.132011
 140           250           2.406725     -.212195       4.302055
 150           250           .589323      -.110319       3.263875
 160           250          -1.951206     -.064388       2.104174
 170           250          -5.448076     -.021737       1.072899
 180           250          -8.718873      .059809       .600093 
 0             260          -18.09795     -3.02433      -2.891359
 10            260          -8.811107     -2.770714     -1.805565
 20            260          -2.949409     -2.455083      .315083 
 30            260           .395001      -2.134948      2.322005
 40            260           2.608042     -1.854367      3.936713
 50            260           4.15231      -1.632899      5.16952 
 60            260           5.233154     -1.46502       6.074934
 70            260           5.956151     -1.326433      6.7005  
 80            260           6.378697     -1.185184      7.079931
 90            260           6.530317     -1.015264      7.234284
 100           260           6.421068     -.807616       7.173952
 110           260           6.044122     -.572685       6.90035 
 120           260           5.374114     -.333423       6.407658
 130           260           4.360287     -.113946       5.685845
 140           260           2.909868      .069624       4.728209
 150           260           .847548       .212822       3.552071
 160           260          -2.196926      .32101        2.252322
 170           260          -7.159481      .403656       1.105   
 180           260          -14.6065       .467123       .600093 
 0             270          -999          -2.891359     -2.891359
 10            270          -8.374016     -2.859069     -1.784019
 20            270          -2.486365     -2.763843      .387411 
 30            270           .812035      -2.610443      2.439854
 40            270           2.994025     -2.40627       4.094477
 50            270           4.517798     -2.160683      5.363054
 60            270           5.583372     -1.884215      6.2991  
 70            270           6.292509     -1.587826      6.947996
 80            270           6.699844     -1.282267      7.341216
 90            270           6.832822     -.977607       7.498171
 100           270           6.699844     -.682922       7.428566
 110           270           6.292509     -.406141       7.134205
 120           270           5.583372     -.153998       6.610615
 130           270           4.517798      .067935       5.84978 
 140           270           2.994025      .255172       4.847318
 150           270           .812035       .404213       3.623209
 160           270          -2.486365      .512453       2.277196
 170           270          -8.374016      .578097       1.098447
 180           270          -999           .600093       .600093 
 0             280          -18.09795     -3.02433      -2.891359
 10            280          -7.601532     -3.166951     -1.830928
 20            280          -2.318201     -3.180257      .282425 
 30            280           .799034      -3.080959      2.288949
 40            280           2.887819     -2.903188      3.903819
 50            280           4.350066     -2.675003      5.136004
 60            280           5.36962      -2.406377      6.039876
 70            280           6.042384     -2.092971      6.663034
 80            280           6.420555     -1.729652      7.03923 
 90            280           6.530323     -1.323605      7.18952 
 100           280           6.379127     -.898569       7.124247
 110           280           5.957529     -.488785       6.844759
 120           280           5.236856     -.128326       6.345192
 130           280           4.161239      .157735       5.615646
 140           280           2.628543      .35764        4.650161
 150           280           .443248       .473244       3.468572
 160           280          -2.817963      .517404       2.172642
 170           280          -8.2527        .509118       1.051378
 180           280          -14.6065       .467123       .600093 
 0             290          -12.21033     -3.431642     -2.891359
 10            290          -6.73618      -3.693442     -1.943315
 20            290          -2.425767     -3.677586      .003571 
 30            290           .378635      -3.489436      1.872016
 40            290           2.305437     -3.271493      3.366971
 50            290           3.659477     -3.104439      4.489745
 60            290           4.597695     -2.978841      5.297044
 70            290           5.207578     -2.815688      5.843323
 80            290           5.538876     -2.51983       6.169811
 90            290           5.617231     -2.050085      6.303197
 100           290           5.449906     -1.453994      6.256137
 110           290           5.027274     -.835059       6.028492
 120           290           4.321018     -.295079       5.609707
 130           290           3.278287      .098792       4.98353 
 140           290           1.809075      .319821       4.138273
 150           290          -.237941       .377443       3.090941
 160           290          -3.102159      .311717       1.942227
 170           290          -6.865433      .184318       .96618  
 180           290          -8.718873      .059809       .600093 
 0             300          -8.911959     -4.140746     -2.891359
 10            300          -5.896872     -4.465353     -2.112096
 20            300          -2.73616      -4.297416     -.436705 
 30            300          -.398406      -3.916646      1.199706
 40            300           1.274427     -3.621558      2.492956
 50            300           2.457986     -3.544542      3.430707
 60            300           3.268739     -3.651328      4.072235
 70            300           3.781016     -3.770419      4.484108
 80            300           4.041056     -3.657244      4.72251 
 90            300           4.074445     -3.16056       4.826324
 100           300           3.889557     -2.361981      4.813442
 110           300           3.478785     -1.486821      4.680383
 120           300           2.818455     -.733204       4.406306
 130           300           1.868203     -.211718       3.961885
 140           300           .572411       .039609       3.324476
 150           300          -1.123255      .036219       2.505362
 160           300          -3.178593     -.157565       1.599774
 170           300          -5.081378     -.43025        .849471 
 180           300          -5.420507     -.649294       .600093 
 0             310          -6.730009     -5.206279     -2.891359
 10            310          -5.129311     -5.545199     -2.321978
 20            310          -3.132016     -5.149451     -1.014327
 30            310          -1.433454     -4.546021      .293637 
 40            310          -.145817      -4.178906      1.300191
 50            310           .773273      -4.201243      1.97272 
 60            310           1.38643      -4.560354      2.370394
 70            310           1.747704     -5.019789      2.57735 
 80            310           1.897525     -5.16816       2.676765
 90            310           1.862249     -4.675297      2.732766
 100           310           1.654707     -3.657923      2.774936
 110           310           1.275699     -2.513115      2.792291
 120           310           .717583      -1.545392      2.742153
 130           310          -.027542      -.895626       2.570369
 140           310          -.949327      -.605555       2.23626 
 150           310          -1.979226     -.657453       1.742053
 160           310          -2.923364     -.973341       1.170487
 170           310          -3.437198     -1.397212      .711788 
 180           310          -3.238557     -1.714827      .600093 
 0             320          -5.206279     -6.730009     -2.891359
 10            320          -4.456418     -7.048759     -2.55167 
 20            320          -3.477183     -6.404918     -1.688574
 30            320          -2.55309      -5.604948     -.805986 
 40            320          -1.81983      -5.191654     -.176113 
 50            320          -1.312093     -5.308883      .144226 
 60            320          -1.017273     -5.893475      .206104 
 70            320          -.904871      -6.682642      .113893 
 80            320          -.940283      -7.122337     -.002997 
 90            320          -1.090793     -6.654331     -.02635  
 100           320          -1.32694      -5.420741      .101961 
 110           320          -1.619982     -4.02279       .353011 
 120           320          -1.93586      -2.863248      .635453 
 130           320          -2.227952     -2.096653      .848494 
 140           320          -2.435158     -1.762773      .924334 
 150           320          -2.495084     -1.845165      .852322 
 160           320          -2.373816     -2.262767      .692364 
 170           320          -2.091239     -2.826697      .566882 
 180           320          -1.714827     -3.238557      .600093 
 0             330          -4.140746     -8.911959     -2.891359
 10            330          -3.89958      -9.192685     -2.774905
 20            330          -3.674814     -8.324825     -2.394808
 30            330          -3.519814     -7.377453     -2.023395
 40            330          -3.478421     -6.943376     -1.863834
 50            330          -3.572528     -7.142714     -1.990342
 60            330          -3.79928      -7.906804     -2.374223
 70            330          -4.132329     -8.972563     -2.900094
 80            330          -4.52208      -9.686231     -3.367645
 90            330          -4.893074     -9.252766     -3.537093
 100           330          -5.142777     -7.825439     -3.269883
 110           330          -5.156142     -6.213101     -2.642246
 120           330          -4.850855     -4.896815     -1.863474
 130           330          -4.233228     -4.032285     -1.121294
 140           330          -3.406765     -3.654983     -.518801 
 150           330          -2.51978      -3.751887     -.081985 
 160           330          -1.70714      -4.245571      .216826 
 170           330          -1.064713     -4.926509      .430495 
 180           330          -.649294      -5.420507      .600093 
 0             340          -3.431642     -12.21033     -2.891359
 10            340          -3.48131      -12.45104     -2.962945
 20            340          -3.720962     -11.41071     -3.038266
 30            340          -4.145462     -10.36616     -3.215651
 40            340          -4.754701     -9.927413     -3.602263
 50            340          -5.549232     -10.1902      -4.266915
 60            340          -6.521097     -11.08287     -5.218395
 70            340          -7.632733     -12.3523      -6.370377
 80            340          -8.765137     -13.28576     -7.451734
 90            340          -9.622185     -12.88571     -7.94405 
 100           340          -9.722064     -11.30534     -7.431647
 110           340          -8.798579     -9.531857     -6.13946 
 120           340          -7.173331     -8.100457     -4.601901
 130           340          -5.355453     -7.162025     -3.155172
 140           340          -3.659512     -6.747883     -1.924467
 150           340          -2.225278     -6.848881     -.938515 
 160           340          -1.111843     -7.393573     -.193727 
 170           340          -.346092      -8.161353      .318571 
 180           340           .059809      -8.718873      .600093 
 0             350          -3.02433      -18.09795     -2.891359
 10            350          -3.221442     -18.30931     -3.0889  
 20            350          -3.690865     -17.16187     -3.499837
 30            350          -4.428049     -16.06345     -4.13981 
 40            350          -5.440327     -15.62637     -5.042988
 50            350          -6.752329     -15.92933     -6.256796
 60            350          -8.411262     -16.89909     -7.835931
 70            350          -10.47729     -18.29204     -9.812558
 80            350          -12.89672     -19.36647     -12.01381
 90            350          -14.80572     -18.99008     -13.40202
 100           350          -14.02274     -17.31177     -12.35276
 110           350          -11.10861     -15.43881     -9.744699
 120           350          -8.113613     -13.93725     -7.1044  
 130           350          -5.581381     -12.95279     -4.850901
 140           350          -3.527265     -12.51396     -3.010806
 150           350          -1.912508     -12.61455     -1.557916
 160           350          -.713564      -13.18804     -.474599 
 170           350           .078791      -14.0089       .24501  
 180           350           .467123      -14.6065       .600093 
 0             360          -2.891359     -999          -2.891359
 10            360          -3.133274     -999          -3.133274
 20            360          -3.669236     -999          -3.669236
 30            360          -4.497777     -999          -4.497777
 40            360          -5.632752     -999          -5.632752
 50            360          -7.114235     -999          -7.114235
 60            360          -9.027316     -999          -9.027316
 70            360          -11.52723     -999          -11.52723
 80            360          -14.7667      -999          -14.7667 
 90            360          -17.60466     -999          -17.60466
 100           360          -15.71157     -999          -15.71157
 110           360          -11.64835     -999          -11.64835
 120           360          -8.235506     -999          -8.235506
 130           360          -5.550148     -999          -5.550148
 140           360          -3.43135      -999          -3.43135 
 150           360          -1.786611     -999          -1.786611
 160           360          -.574779      -999          -.574779 
 170           360           .219354      -999           .219354 
 180           360           .600093      -999           .600093 