                   ****************************************
                     MINI-NUMERICAL ELECTROMAGNETICS CODE
                                   MININEC
                   ****************************************

FREQUENCY (MHZ): 28.5
    WAVE LENGTH =  10.5193  METERS

ENVIRONMENT (+1 FOR FREE SPACE, -1 FOR GROUND PLANE): +1

NO. OF WIRES: 22

WIRE NO. 1
            COORDINATES                                 END         NO. OF
   X             Y             Z          RADIUS     CONNECTION     SEGMENTS
-2.52984       0             0                          0
-2.50444       0             0             .000512      0              1

WIRE NO. 2
            COORDINATES                                 END         NO. OF
   X             Y             Z          RADIUS     CONNECTION     SEGMENTS
-2.50444       0             0                          1
-2.45364       0             0             .000512      0              1

WIRE NO. 3
            COORDINATES                                 END         NO. OF
   X             Y             Z          RADIUS     CONNECTION     SEGMENTS
-2.45364       0             0                          2
-2.35204       0             0             .000512      0              1

WIRE NO. 4
            COORDINATES                                 END         NO. OF
   X             Y             Z          RADIUS     CONNECTION     SEGMENTS
-2.35204       0             0                          3
-2.14884       0             0             .000512      0              1

WIRE NO. 5
            COORDINATES                                 END         NO. OF
   X             Y             Z          RADIUS     CONNECTION     SEGMENTS
-2.14884       0             0                          4
 0             0             0             .000512      0              6

WIRE NO. 6
            COORDINATES                                 END         NO. OF
   X             Y             Z          RADIUS     CONNECTION     SEGMENTS
-2.52984       0             0                         -1
-2.52984       0             .0254         .000512      0              1

WIRE NO. 7
            COORDINATES                                 END         NO. OF
   X             Y             Z          RADIUS     CONNECTION     SEGMENTS
-2.52984       0             .0254                      6
-2.50444       0             .0254         .000512      0              1

WIRE NO. 8
            COORDINATES                                 END         NO. OF
   X             Y             Z          RADIUS     CONNECTION     SEGMENTS
-2.50444       0             .0254                      7
-2.45364       0             .0254         .000512      0              1

WIRE NO. 9
            COORDINATES                                 END         NO. OF
   X             Y             Z          RADIUS     CONNECTION     SEGMENTS
-2.45364       0             .0254                      8
-2.35204       0             .0254         .000512      0              1

WIRE NO. 10
            COORDINATES                                 END         NO. OF
   X             Y             Z          RADIUS     CONNECTION     SEGMENTS
-2.35204       0             .0254                      9
-2.14884       0             .0254         .000512      0              1

WIRE NO. 11
            COORDINATES                                 END         NO. OF
   X             Y             Z          RADIUS     CONNECTION     SEGMENTS
-2.14884       0             .0254                     10
 0             0             .0254         .000512      0              6

WIRE NO. 12
            COORDINATES                                 END         NO. OF
   X             Y             Z          RADIUS     CONNECTION     SEGMENTS
 2.52984       0             0                          0
 2.50444       0             0             .000512      0              1

WIRE NO. 13
            COORDINATES                                 END         NO. OF
   X             Y             Z          RADIUS     CONNECTION     SEGMENTS
 2.50444       0             0                         12
 2.45364       0             0             .000512      0              1

WIRE NO. 14
            COORDINATES                                 END         NO. OF
   X             Y             Z          RADIUS     CONNECTION     SEGMENTS
 2.45364       0             0                         13
 2.35204       0             0             .000512      0              1

WIRE NO. 15
            COORDINATES                                 END         NO. OF
   X             Y             Z          RADIUS     CONNECTION     SEGMENTS
 2.35204       0             0                         14
 2.14884       0             0             .000512      0              1

WIRE NO. 16
            COORDINATES                                 END         NO. OF
   X             Y             Z          RADIUS     CONNECTION     SEGMENTS
 2.14884       0             0                         15
 0             0             0             .000512     -5              6

WIRE NO. 17
            COORDINATES                                 END         NO. OF
   X             Y             Z          RADIUS     CONNECTION     SEGMENTS
 2.52984       0             .0254                      0
 2.52984       0             0             .000512     12              1

WIRE NO. 18
            COORDINATES                                 END         NO. OF
   X             Y             Z          RADIUS     CONNECTION     SEGMENTS
 2.52984       0             .0254                    -17
 2.50444       0             .0254         .000512      0              1

WIRE NO. 19
            COORDINATES                                 END         NO. OF
   X             Y             Z          RADIUS     CONNECTION     SEGMENTS
 2.50444       0             .0254                     18
 2.45364       0             .0254         .000512      0              1

WIRE NO. 20
            COORDINATES                                 END         NO. OF
   X             Y             Z          RADIUS     CONNECTION     SEGMENTS
 2.45364       0             .0254                     19
 2.35204       0             .0254         .000512      0              1

WIRE NO. 21
            COORDINATES                                 END         NO. OF
   X             Y             Z          RADIUS     CONNECTION     SEGMENTS
 2.35204       0             .0254                     20
 2.14884       0             .0254         .000512      0              1

WIRE NO. 22
            COORDINATES                                 END         NO. OF
   X             Y             Z          RADIUS     CONNECTION     SEGMENTS
 2.14884       0             .0254                     21
 0             0             .0254         .000512     -11              6

                  **** ANTENNA GEOMETRY ****

WIRE NO.  1  COORDINATES                                CONNECTION PULSE
X             Y             Z             RADIUS        END1 END2  NO.
-             -             -                 -          -    -    0   

WIRE NO.  2  COORDINATES                                CONNECTION PULSE
X             Y             Z             RADIUS        END1 END2  NO.
-2.50444       0             0             .000512       1    0   1

WIRE NO.  3  COORDINATES                                CONNECTION PULSE
X             Y             Z             RADIUS        END1 END2  NO.
-2.45364       0             0             .000512       2    0   2

WIRE NO.  4  COORDINATES                                CONNECTION PULSE
X             Y             Z             RADIUS        END1 END2  NO.
-2.35204       0             0             .000512       3    0   3

WIRE NO.  5  COORDINATES                                CONNECTION PULSE
X             Y             Z             RADIUS        END1 END2  NO.
-2.14884       0             0             .000512       4    5   4
-1.7907        0             0             .000512       5    5   5
-1.43256       0             0             .000512       5    5   6
-1.07442       0             0             .000512       5    5   7
-.71628        0             0             .000512       5    5   8
-.35814        0             0             .000512       5    0   9

WIRE NO.  6  COORDINATES                                CONNECTION PULSE
X             Y             Z             RADIUS        END1 END2  NO.
-2.52984       0             0             .000512      -1    0  10

WIRE NO.  7  COORDINATES                                CONNECTION PULSE
X             Y             Z             RADIUS        END1 END2  NO.
-2.52984       0             .0254         .000512       6    0  11

WIRE NO.  8  COORDINATES                                CONNECTION PULSE
X             Y             Z             RADIUS        END1 END2  NO.
-2.50444       0             .0254         .000512       7    0  12

WIRE NO.  9  COORDINATES                                CONNECTION PULSE
X             Y             Z             RADIUS        END1 END2  NO.
-2.45364       0             .0254         .000512       8    0  13

WIRE NO. 10  COORDINATES                                CONNECTION PULSE
X             Y             Z             RADIUS        END1 END2  NO.
-2.35204       0             .0254         .000512       9    0  14

WIRE NO. 11  COORDINATES                                CONNECTION PULSE
X             Y             Z             RADIUS        END1 END2  NO.
-2.14884       0             .0254         .000512      10   11  15
-1.7907        0             .0254         .000512      11   11  16
-1.43256       0             .0254         .000512      11   11  17
-1.07442       0             .0254         .000512      11   11  18
-.71628        0             .0254         .000512      11   11  19
-.35814        0             .0254         .000512      11    0  20

WIRE NO. 12  COORDINATES                                CONNECTION PULSE
X             Y             Z             RADIUS        END1 END2  NO.
-             -             -                 -          -    -    0   

WIRE NO. 13  COORDINATES                                CONNECTION PULSE
X             Y             Z             RADIUS        END1 END2  NO.
 2.50444       0             0             .000512      12    0  21

WIRE NO. 14  COORDINATES                                CONNECTION PULSE
X             Y             Z             RADIUS        END1 END2  NO.
 2.45364       0             0             .000512      13    0  22

WIRE NO. 15  COORDINATES                                CONNECTION PULSE
X             Y             Z             RADIUS        END1 END2  NO.
 2.35204       0             0             .000512      14    0  23

WIRE NO. 16  COORDINATES                                CONNECTION PULSE
X             Y             Z             RADIUS        END1 END2  NO.
 2.14884       0             0             .000512      15   16  24
 1.7907        0             0             .000512      16   16  25
 1.43256       0             0             .000512      16   16  26
 1.07442       0             0             .000512      16   16  27
 .71628        0             0             .000512      16   16  28
 .35814        0             0             .000512      16   16  29
 0             0             0             .000512      16   -5  30

WIRE NO. 17  COORDINATES                                CONNECTION PULSE
X             Y             Z             RADIUS        END1 END2  NO.
 2.52984       0             0             .000512       0   12  31

WIRE NO. 18  COORDINATES                                CONNECTION PULSE
X             Y             Z             RADIUS        END1 END2  NO.
 2.52984       0             .0254         .000512     -17    0  32

WIRE NO. 19  COORDINATES                                CONNECTION PULSE
X             Y             Z             RADIUS        END1 END2  NO.
 2.50444       0             .0254         .000512      18    0  33

WIRE NO. 20  COORDINATES                                CONNECTION PULSE
X             Y             Z             RADIUS        END1 END2  NO.
 2.45364       0             .0254         .000512      19    0  34

WIRE NO. 21  COORDINATES                                CONNECTION PULSE
X             Y             Z             RADIUS        END1 END2  NO.
 2.35204       0             .0254         .000512      20    0  35

WIRE NO. 22  COORDINATES                                CONNECTION PULSE
X             Y             Z             RADIUS        END1 END2  NO.
 2.14884       0             .0254         .000512      21   22  36
 1.7907        0             .0254         .000512      22   22  37
 1.43256       0             .0254         .000512      22   22  38
 1.07442       0             .0254         .000512      22   22  39
 .71628        0             .0254         .000512      22   22  40
 .35814        0             .0254         .000512      22   22  41
 0             0             .0254         .000512      22  -11  42

NO. OF SOURCES :  1
PULSE NO., VOLTAGE MAGNITUDE, PHASE (DEGREES): 31 , 1 , 0
NUMBER OF LOADS 0

********************    SOURCE DATA     ********************
PULSE 31      VOLTAGE = ( 1 , 0 J)
              CURRENT = ( 9.604732E-07 ,  1.289252E-02 J)
              IMPEDANCE = ( 5.778424E-03 , -77.56433 J)
              POWER =  4.802366E-07  WATTS

********************    CURRENT DATA    ********************

WIRE NO.  1 :
PULSE         REAL          IMAGINARY     MAGNITUDE     PHASE
 NO.          (AMPS)        (AMPS)        (AMPS)        (DEGREES)
J              1.291206E-08  1.303358E-02  1.303358E-02  89.99994 
J             -8.564079E-07  1.303251E-02  1.303251E-02  90.00377 
WIRE NO.  2 :
PULSE         REAL          IMAGINARY     MAGNITUDE     PHASE
 NO.          (AMPS)        (AMPS)        (AMPS)        (DEGREES)
J             -8.564079E-07  1.303251E-02  1.303251E-02  90.00377 
J             -2.395355E-06  1.302126E-02  1.302126E-02  90.01054 
WIRE NO.  3 :
PULSE         REAL          IMAGINARY     MAGNITUDE     PHASE
 NO.          (AMPS)        (AMPS)        (AMPS)        (DEGREES)
J             -2.395355E-06  1.302126E-02  1.302126E-02  90.01054 
J             -5.175700E-06  1.296256E-02  1.296256E-02  90.02288 
WIRE NO.  4 :
PULSE         REAL          IMAGINARY     MAGNITUDE     PHASE
 NO.          (AMPS)        (AMPS)        (AMPS)        (DEGREES)
J             -5.175700E-06  1.296256E-02  1.296256E-02  90.02288 
J             -1.028862E-05  1.270272E-02  1.270273E-02  90.04641 
WIRE NO.  5 :
PULSE         REAL          IMAGINARY     MAGNITUDE     PHASE
 NO.          (AMPS)        (AMPS)        (AMPS)        (DEGREES)
J             -1.028862E-05  1.270272E-02  1.270273E-02  90.04641 
 5            -1.856894E-05  1.181694E-02  1.181696E-02  90.09003 
 6            -2.573974E-05  1.040770E-02  1.040773E-02  90.1417  
 7            -3.163234E-05  8.537480E-03  8.537539E-03  90.21229 
 8            -3.604415E-05  6.289097E-03  6.289200E-03  90.32837 
 9            -3.880849E-05  3.762091E-03  3.762291E-03  90.59102 
J             -3.981652E-05  1.068333E-03  1.069075E-03  92.13441 
WIRE NO.  6 :
PULSE         REAL          IMAGINARY     MAGNITUDE     PHASE
 NO.          (AMPS)        (AMPS)        (AMPS)        (DEGREES)
J             -1.291206E-08 -1.303358E-02  1.303358E-02 -90.00006 
J             -9.317769E-07 -1.303326E-02  1.303326E-02 -90.0041  
WIRE NO.  7 :
PULSE         REAL          IMAGINARY     MAGNITUDE     PHASE
 NO.          (AMPS)        (AMPS)        (AMPS)        (DEGREES)
J             -9.317769E-07 -1.303326E-02  1.303326E-02 -90.0041  
J             -1.797601E-06 -1.303158E-02  1.303158E-02 -90.0079  
WIRE NO.  8 :
PULSE         REAL          IMAGINARY     MAGNITUDE     PHASE
 NO.          (AMPS)        (AMPS)        (AMPS)        (DEGREES)
J             -1.797601E-06 -1.303158E-02  1.303158E-02 -90.0079  
J             -3.329299E-06 -1.301926E-02  1.301926E-02 -90.01465 
WIRE NO.  9 :
PULSE         REAL          IMAGINARY     MAGNITUDE     PHASE
 NO.          (AMPS)        (AMPS)        (AMPS)        (DEGREES)
J             -3.329299E-06 -1.301926E-02  1.301926E-02 -90.01465 
J             -6.092626E-06 -1.295866E-02  1.295866E-02 -90.02694 
WIRE NO. 10 :
PULSE         REAL          IMAGINARY     MAGNITUDE     PHASE
 NO.          (AMPS)        (AMPS)        (AMPS)        (DEGREES)
J             -6.092626E-06 -1.295866E-02  1.295866E-02 -90.02694 
J             -1.116253E-05 -1.269543E-02  1.269543E-02 -90.05038 
WIRE NO. 11 :
PULSE         REAL          IMAGINARY     MAGNITUDE     PHASE
 NO.          (AMPS)        (AMPS)        (AMPS)        (DEGREES)
J             -1.116253E-05 -1.269543E-02  1.269543E-02 -90.05038 
 16           -1.935656E-05 -1.180445E-02  1.180447E-02 -90.09395 
 17           -2.640510E-05 -1.039112E-02  1.039115E-02 -90.1456  
 18           -3.214491E-05 -8.518009E-03  8.518070E-03 -90.21622 
 19           -3.638020E-05 -6.268024E-03  6.268129E-03 -90.33255 
 20           -3.895219E-05 -3.740764E-03  3.740966E-03 -90.59659 
J             -3.976062E-05 -1.048108E-03  1.048862E-03 -92.17251 
WIRE NO. 12 :
PULSE         REAL          IMAGINARY     MAGNITUDE     PHASE
 NO.          (AMPS)        (AMPS)        (AMPS)        (DEGREES)
J              9.604732E-07  1.289252E-02  1.289252E-02  89.99573 
J              1.829742E-06  1.285088E-02  1.285088E-02  89.99184 
WIRE NO. 13 :
PULSE         REAL          IMAGINARY     MAGNITUDE     PHASE
 NO.          (AMPS)        (AMPS)        (AMPS)        (DEGREES)
J              1.829742E-06  1.285088E-02  1.285088E-02  89.99184 
J              3.367324E-06  1.277194E-02  1.277194E-02  89.98489 
WIRE NO. 14 :
PULSE         REAL          IMAGINARY     MAGNITUDE     PHASE
 NO.          (AMPS)        (AMPS)        (AMPS)        (DEGREES)
J              3.367324E-06  1.277194E-02  1.277194E-02  89.98489 
J              6.140544E-06  1.258186E-02  1.258186E-02  89.97204 
WIRE NO. 15 :
PULSE         REAL          IMAGINARY     MAGNITUDE     PHASE
 NO.          (AMPS)        (AMPS)        (AMPS)        (DEGREES)
J              6.140544E-06  1.258186E-02  1.258186E-02  89.97204 
J              1.122644E-05  1.206642E-02  1.206642E-02  89.94669 
WIRE NO. 16 :
PULSE         REAL          IMAGINARY     MAGNITUDE     PHASE
 NO.          (AMPS)        (AMPS)        (AMPS)        (DEGREES)
J              1.122644E-05  1.206642E-02  1.206642E-02  89.94669 
 25            1.944335E-05  1.076622E-02  1.076624E-02  89.89653 
 26            2.650266E-05  8.989865E-03  8.989904E-03  89.83109 
 27            3.224284E-05  6.815844E-03  6.815920E-03  89.72896 
 28            3.646988E-05  4.340344E-03  4.340497E-03  89.51858 
 29            3.902708E-05  1.672927E-03  1.673383E-03  88.66361 
J              3.981652E-05 -1.068333E-03  1.069075E-03 -87.86559 
WIRE NO. 17 :
PULSE         REAL          IMAGINARY     MAGNITUDE     PHASE
 NO.          (AMPS)        (AMPS)        (AMPS)        (DEGREES)
J              3.802057E-08  1.285820E-02  1.285820E-02  89.99983 
J              9.604732E-07  1.289252E-02  1.289252E-02  89.99573 
WIRE NO. 18 :
PULSE         REAL          IMAGINARY     MAGNITUDE     PHASE
 NO.          (AMPS)        (AMPS)        (AMPS)        (DEGREES)
J             -3.802057E-08 -1.285820E-02  1.285820E-02 -90.00017 
J              8.345337E-07 -1.282789E-02  1.282789E-02 -89.99627 
WIRE NO. 19 :
PULSE         REAL          IMAGINARY     MAGNITUDE     PHASE
 NO.          (AMPS)        (AMPS)        (AMPS)        (DEGREES)
J              8.345337E-07 -1.282789E-02  1.282789E-02 -89.99627 
J              2.378980E-06 -1.275330E-02  1.275330E-02 -89.98931 
WIRE NO. 20 :
PULSE         REAL          IMAGINARY     MAGNITUDE     PHASE
 NO.          (AMPS)        (AMPS)        (AMPS)        (DEGREES)
J              2.378980E-06 -1.275330E-02  1.275330E-02 -89.98931 
J              5.168438E-06 -1.256699E-02  1.256699E-02 -89.97644 
WIRE NO. 21 :
PULSE         REAL          IMAGINARY     MAGNITUDE     PHASE
 NO.          (AMPS)        (AMPS)        (AMPS)        (DEGREES)
J              5.168438E-06 -1.256699E-02  1.256699E-02 -89.97644 
J              1.029470E-05 -1.205653E-02  1.205654E-02 -89.95108 
WIRE NO. 22 :
PULSE         REAL          IMAGINARY     MAGNITUDE     PHASE
 NO.          (AMPS)        (AMPS)        (AMPS)        (DEGREES)
J              1.029470E-05 -1.205653E-02  1.205654E-02 -89.95108 
 37            1.858283E-05 -1.076364E-02  1.076365E-02 -89.90108 
 38            2.575117E-05 -8.993702E-03  8.993738E-03 -89.83595 
 39            3.163326E-05 -6.825315E-03  6.825388E-03 -89.73445 
 40            3.602871E-05 -4.354526E-03  4.354675E-03 -89.52595 
 41            3.877327E-05 -1.690740E-03  1.691184E-03 -88.68628 
J              3.976062E-05  1.048108E-03  1.048862E-03  87.82749 

********************     FAR FIELD      ********************

ZENITH ANGLE : INITIAL,INCREMENT,NUMBER: 0 , 10 , 19
AZIMUTH ANGLE: INITIAL,INCREMENT,NUMBER: 0 , 10 , 37

********************    PATTERN DATA    ********************
ZENITH        AZIMUTH       VERTICAL      HORIZONTAL    TOTAL
 ANGLE         ANGLE        PATTERN (DB)  PATTERN (DB)  PATTERN (DB)
 0             0            -2.891412     -999          -2.891412
 10            0            -3.133327     -999          -3.133327
 20            0            -3.669289     -999          -3.669289
 30            0            -4.49783      -999          -4.49783 
 40            0            -5.632805     -999          -5.632805
 50            0            -7.114288     -999          -7.114288
 60            0            -9.02737      -999          -9.02737 
 70            0            -11.52729     -999          -11.52729
 80            0            -14.76675     -999          -14.76675
 90            0            -17.60472     -999          -17.60472
 100           0            -15.71162     -999          -15.71162
 110           0            -11.64841     -999          -11.64841
 120           0            -8.235559     -999          -8.235559
 130           0            -5.550201     -999          -5.550201
 140           0            -3.431404     -999          -3.431404
 150           0            -1.786665     -999          -1.786665
 160           0            -.574832      -999          -.574832 
 170           0             .219301      -999           .219301 
 180           0             .60004       -999           .60004  
 0             10           -3.024383     -18.09801     -2.891412
 10            10           -3.221495     -18.30936     -3.088953
 20            10           -3.690919     -17.16192     -3.49989 
 30            10           -4.428102     -16.0635      -4.139863
 40            10           -5.44038      -15.62643     -5.043041
 50            10           -6.752382     -15.92938     -6.25685 
 60            10           -8.411315     -16.89914     -7.835984
 70            10           -10.47735     -18.29209     -9.812611
 80            10           -12.89677     -19.36652     -12.01386
 90            10           -14.80578     -18.99013     -13.40208
 100           10           -14.02279     -17.31182     -12.35282
 110           10           -11.10866     -15.43887     -9.744752
 120           10           -8.113667     -13.93731     -7.104454
 130           10           -5.581434     -12.95284     -4.850955
 140           10           -3.527318     -12.51402     -3.01086 
 150           10           -1.912562     -12.61461     -1.557969
 160           10           -.713617      -13.1881      -.474653 
 170           10            .078738      -14.00896      .244956 
 180           10            .467069      -14.60656      .60004  
 0             20           -3.431696     -12.21038     -2.891412
 10            20           -3.481363     -12.45109     -2.962999
 20            20           -3.721016     -11.41076     -3.038319
 30            20           -4.145515     -10.36621     -3.215704
 40            20           -4.754754     -9.927466     -3.602316
 50            20           -5.549286     -10.19025     -4.266969
 60            20           -6.52115      -11.08292     -5.218448
 70            20           -7.632787     -12.35236     -6.370431
 80            20           -8.765191     -13.28582     -7.451788
 90            20           -9.622238     -12.88576     -7.944103
 100           20           -9.722118     -11.30539     -7.431701
 110           20           -8.798632     -9.531911     -6.139514
 120           20           -7.173384     -8.100511     -4.601954
 130           20           -5.355507     -7.162079     -3.155225
 140           20           -3.659565     -6.747937     -1.924521
 150           20           -2.225331     -6.848934     -.938568 
 160           20           -1.111896     -7.393626     -.193781 
 170           20           -.346145      -8.161406      .318517 
 180           20            .059756      -8.718926      .60004  
 0             30           -4.140799     -8.912012     -2.891412
 10            30           -3.899633     -9.192739     -2.774958
 20            30           -3.674867     -8.324879     -2.394861
 30            30           -3.519867     -7.377506     -2.023448
 40            30           -3.478474     -6.943429     -1.863888
 50            30           -3.572581     -7.142767     -1.990396
 60            30           -3.799334     -7.906857     -2.374276
 70            30           -4.132382     -8.972616     -2.900147
 80            30           -4.522134     -9.686284     -3.367698
 90            30           -4.893127     -9.252819     -3.537147
 100           30           -5.14283      -7.825492     -3.269936
 110           30           -5.156195     -6.213154     -2.642299
 120           30           -4.850908     -4.896869     -1.863528
 130           30           -4.233281     -4.032338     -1.121348
 140           30           -3.406818     -3.655036     -.518854 
 150           30           -2.519834     -3.75194      -.082038 
 160           30           -1.707193     -4.245625      .216772 
 170           30           -1.064767     -4.926562      .430441 
 180           30           -.649347      -5.42056       .60004  
 0             40           -5.206333     -6.730062     -2.891412
 10            40           -4.456472     -7.048812     -2.551723
 20            40           -3.477236     -6.404972     -1.688627
 30            40           -2.553143     -5.605002     -.806039 
 40            40           -1.819883     -5.191707     -.176166 
 50            40           -1.312147     -5.308936      .144172 
 60            40           -1.017326     -5.893529      .20605  
 70            40           -.904925      -6.682696      .11384  
 80            40           -.940337      -7.12239      -.00305  
 90            40           -1.090846     -6.654384     -.026404 
 100           40           -1.326993     -5.420795      .101908 
 110           40           -1.620035     -4.022843      .352958 
 120           40           -1.935914     -2.863301      .6354   
 130           40           -2.228006     -2.096706      .84844  
 140           40           -2.435211     -1.762826      .924281 
 150           40           -2.495138     -1.845218      .852268 
 160           40           -2.373869     -2.26282       .69231  
 170           40           -2.091292     -2.82675       .566828 
 180           40           -1.714881     -3.23861       .60004  
 0             50           -6.730062     -5.206333     -2.891412
 10            50           -5.129364     -5.545252     -2.322032
 20            50           -3.132069     -5.149505     -1.01438 
 30            50           -1.433507     -4.546075      .293583 
 40            50           -.145871      -4.178959      1.300138
 50            50            .773219      -4.201296      1.972666
 60            50            1.386376     -4.560408      2.37034 
 70            50            1.747651     -5.019842      2.577296
 80            50            1.897471     -5.168213      2.676712
 90            50            1.862196     -4.675351      2.732713
 100           50            1.654654     -3.657976      2.774882
 110           50            1.275646     -2.513169      2.792238
 120           50            .71753       -1.545445      2.7421  
 130           50           -.027595      -.895679       2.570316
 140           50           -.94938       -.605608       2.236206
 150           50           -1.979279     -.657506       1.741999
 160           50           -2.923417     -.973395       1.170434
 170           50           -3.437252     -1.397266      .711735 
 180           50           -3.23861      -1.714881      .60004  
 0             60           -8.912012     -4.140799     -2.891412
 10            60           -5.896925     -4.465406     -2.112149
 20            60           -2.736214     -4.297469     -.436759 
 30            60           -.39846       -3.916699      1.199652
 40            60            1.274374     -3.621612      2.492902
 50            60            2.457933     -3.544595      3.430653
 60            60            3.268686     -3.651381      4.072182
 70            60            3.780963     -3.770472      4.484055
 80            60            4.041003     -3.657297      4.722457
 90            60            4.074392     -3.160614      4.82627 
 100           60            3.889504     -2.362034      4.813388
 110           60            3.478731     -1.486875      4.68033 
 120           60            2.818402     -.733257       4.406252
 130           60            1.86815      -.211771       3.961832
 140           60            .572358       .039556       3.324423
 150           60           -1.123309      .036165       2.505308
 160           60           -3.178647     -.157618       1.599721
 170           60           -5.081431     -.430304       .849418 
 180           60           -5.42056      -.649347       .60004  
 0             70           -12.21038     -3.431696     -2.891412
 10            70           -6.736234     -3.693495     -1.943369
 20            70           -2.42582      -3.67764       .003518 
 30            70            .378582      -3.489489      1.871963
 40            70            2.305384     -3.271546      3.366918
 50            70            3.659423     -3.104492      4.489691
 60            70            4.597642     -2.978894      5.296991
 70            70            5.207525     -2.815741      5.843269
 80            70            5.538822     -2.519883      6.169758
 90            70            5.617177     -2.050138      6.303144
 100           70            5.449852     -1.454047      6.256083
 110           70            5.02722      -.835113       6.028439
 120           70            4.320964     -.295132       5.609653
 130           70            3.278233      .098738       4.983477
 140           70            1.809022      .319768       4.13822 
 150           70           -.237994       .377389       3.090888
 160           70           -3.102213      .311664       1.942174
 170           70           -6.865486      .184265       .966126 
 180           70           -8.718926      .059756       .60004  
 0             80           -18.09801     -3.024383     -2.891412
 10            80           -7.601585     -3.167004     -1.830981
 20            80           -2.318255     -3.18031       .282372 
 30            80            .798981      -3.081012      2.288896
 40            80            2.887766     -2.903241      3.903766
 50            80            4.350013     -2.675057      5.135951
 60            80            5.369566     -2.40643       6.039823
 70            80            6.042331     -2.093025      6.662981
 80            80            6.420502     -1.729705      7.039177
 90            80            6.53027      -1.323658      7.189466
 100           80            6.379074     -.898622       7.124194
 110           80            5.957475     -.488839       6.844706
 120           80            5.236803     -.128379       6.345139
 130           80            4.161186      .157681       5.615593
 140           80            2.628489      .357586       4.650107
 150           80            .443195       .473191       3.468519
 160           80           -2.818016      .517351       2.172588
 170           80           -8.252753      .509065       1.051324
 180           80           -14.60656      .467069       .60004  
 0             90           -999          -2.891412     -2.891412
 10            90           -8.374069     -2.859122     -1.784072
 20            90           -2.486418     -2.763897      .387358 
 30            90            .811981      -2.610496      2.439801
 40            90            2.993972     -2.406324      4.094424
 50            90            4.517745     -2.160736      5.363001
 60            90            5.583319     -1.884268      6.299047
 70            90            6.292456     -1.587879      6.947943
 80            90            6.69979      -1.282321      7.341162
 90            90            6.832769     -.97766        7.498117
 100           90            6.69979      -.682975       7.428513
 110           90            6.292456     -.406194       7.134151
 120           90            5.583319     -.154051       6.610562
 130           90            4.517745      .067882       5.849726
 140           90            2.993972      .255119       4.847265
 150           90            .811981       .404159       3.623156
 160           90           -2.486418      .5124         2.277143
 170           90           -8.374069      .578043       1.098394
 180           90           -999           .60004        .60004  
 0             100          -18.09801     -3.024383     -2.891412
 10            100          -8.81116      -2.770767     -1.805619
 20            100          -2.949463     -2.455136      .31503  
 30            100           .394948      -2.135001      2.321951
 40            100           2.607989     -1.85442       3.93666 
 50            100           4.152257     -1.632952      5.169467
 60            100           5.233101     -1.465073      6.07488 
 70            100           5.956097     -1.326486      6.700447
 80            100           6.378644     -1.185237      7.079878
 90            100           6.530264     -1.015318      7.234231
 100           100           6.421015     -.807669       7.173899
 110           100           6.044069     -.572738       6.900296
 120           100           5.374061     -.333476       6.407605
 130           100           4.360234     -.113999       5.685792
 140           100           2.909814      .069571       4.728156
 150           100           .847495       .212769       3.552017
 160           100          -2.196979      .320957       2.252269
 170           100          -7.159535      .403602       1.104947
 180           100          -14.60656      .467069       .60004  
 0             110          -12.21038     -3.431696     -2.891412
 10            110          -8.633278     -2.926251     -1.892599
 20            110          -3.65211      -2.328655      .070136 
 30            110          -.447504      -1.798079      1.939799
 40            110           1.720795     -1.432913      3.434429
 50            110           3.240784     -1.263358      4.558494
 60            110           4.305979     -1.263319      5.369169
 70            110           5.021816     -1.36099       5.920851
 80            110           5.448132     -1.453976      6.254667
 90            110           5.617165     -1.443464      6.397236
 100           110           5.541375     -1.282914      6.361197
 110           110           5.216256     -1.00264       6.146415
 120           110           4.619777     -.682987       5.742251
 130           110           3.708251     -.404105       5.131958
 140           110           2.406672     -.212248       4.302002
 150           110           .58927       -.110373       3.263822
 160           110          -1.95126      -.064441       2.104121
 170           110          -5.44813      -.02179        1.072845
 180           110          -8.718926      .059756       .60004  
 0             120          -8.912012     -4.140799     -2.891412
 10            120          -7.806186     -3.372187     -2.03601 
 20            120          -4.421034     -2.481512     -.333589 
 30            120          -1.655679     -1.75367       1.305902
 40            120           .342505      -1.32499       2.598601
 50            120           1.771908     -1.222187      3.538229
 60            120           2.781256     -1.401403      4.185426
 70            120           3.465854     -1.755726      4.606952
 80            120           3.885294     -2.113117      4.858841
 90            120           4.074371     -2.275197      4.979641
 100           120           4.048734     -2.129402      4.986781
 110           120           3.80758      -1.736621      4.876233
 120           120           3.33467      -1.269459      4.626435
 130           120           2.598269     -.886756       4.206634
 140           120           1.550907     -.671907       3.590484
 150           120           .133193      -.627581       2.779743
 160           120          -1.696984     -.685171       1.848622
 170           120          -3.813803     -.727887       1.007966
 180           120          -5.42056      -.649347       .60004  
 0             130          -6.730062     -5.206333     -2.891412
 10            130          -6.616794     -4.182396     -2.22091 
 20            130          -4.951132     -3.023491     -.870929 
 30            130          -3.040672     -2.138445      .444128 
 40            130          -1.448768     -1.675372      1.449708
 50            130          -.240555      -1.645287      2.123929
 60            130           .637507      -1.990513      2.529621
 70            130           1.249167     -2.585364      2.752334
 80            130           1.645683     -3.204301      2.875511
 90            130           1.862164     -3.539533      2.962302
 100           130           1.917853     -3.385801      3.040124
 110           130           1.817527     -2.841398      3.095259
 120           130           1.553829     -2.194913      3.082271
 130           130           1.111065     -1.687764      2.943618
 140           130           .471833      -1.435991      2.632151
 150           130          -.369846      -1.445072      2.136032
 160           130          -1.380442     -1.619704      1.511874
 170           130          -2.431819     -1.774239      .919705 
 180           130          -3.23861      -1.714881      .60004  
 0             140          -5.206333     -6.730062     -2.891412
 10            140          -5.398882     -5.475569     -2.426756
 20            140          -4.973735     -4.092716     -1.500623
 30            140          -4.201274     -3.095088     -.602757 
 40            140          -3.380558     -2.62218       .025463 
 50            140          -2.667561     -2.663977      .344531 
 60            140          -2.103121     -3.152051      .414305 
 70            140          -1.673186     -3.953258      .345022 
 80            140          -1.346006     -4.807508      .269653 
 90            140          -1.090896     -5.304054      .30487  
 100           140          -.887264      -5.12949       .500532 
 110           140          -.727961      -4.422555      .816616 
 120           140          -.618611      -3.596213      1.153228
 130           140          -.574007      -2.964538      1.403472
 140           140          -.612641      -2.666824      1.490904
 150           140          -.750209      -2.713928      1.388289
 160           140          -.992339      -2.996629      1.130428
 170           140          -1.326583     -3.269141      .820156 
 180           140          -1.714881     -3.23861       .60004  
 0             150          -4.140799     -8.912012     -2.891412
 10            150          -4.357034     -7.465298     -2.628531
 20            150          -4.536981     -5.910028     -2.159167
 30            150          -4.697457     -4.838357     -1.757036
 40            150          -4.861928     -4.371097     -1.599282
 50            150          -5.03551      -4.477636     -1.737322
 60            150          -5.190333     -5.081141     -2.125094
 70            150          -5.265949     -6.046784     -2.628542
 80            150          -5.186527     -7.095111     -3.026507
 90            150          -4.893209     -7.729934     -3.073664
 100           150          -4.376537     -7.53027      -2.662911
 110           150          -3.684993     -6.673662     -1.916858
 120           150          -2.904383     -5.6894       -1.06707 
 130           150          -2.128605     -4.947832     -.303063 
 140           150          -1.440897     -4.602619      .270126 
 150           150          -.90765       -4.670966      .616473 
 160           150          -.578377      -5.040181      .750453 
 170           150          -.486592      -5.419621      .722903 
 180           150          -.649347      -5.42056       .60004  
 0             160          -3.431696     -12.21038     -2.891412
 10            160          -3.583235     -10.61978     -2.799195
 20            160          -3.951487     -8.944048     -2.756388
 30            160          -4.552494     -7.827831     -2.878142
 40            160          -5.397268     -7.372376     -3.263195
 50            160          -6.480469     -7.530505     -3.963529
 60            160          -7.748855     -8.219161     -4.967345
 70            160          -9.017233     -9.303978     -6.147939
 80            160          -9.835746     -10.49604     -7.143055
 90            160          -9.622383     -11.23675     -7.344683
 100           160          -8.3439       -11.01449     -6.466773
 110           160          -6.568327     -10.03895     -4.955498
 120           160          -4.777129     -8.933243     -3.365609
 130           160          -3.185858     -8.106444     -1.973335
 140           160          -1.874417     -7.720171     -.86978  
 150           160          -.876645      -7.797331     -.073253 
 160           160          -.212647      -8.227286      .424274 
 170           160           .102843      -8.69032       .641435 
 180           160           .059756      -8.718926      .60004  
 0             170          -3.024383     -18.09801     -2.891412
 10            170          -3.111945     -16.41855     -2.913712
 20            170          -3.502106     -14.67208     -3.182434
 30            170          -4.219002     -13.53272     -3.738007
 40            170          -5.298016     -13.08763     -4.629704
 50            170          -6.7966       -13.27905     -5.916024
 60            170          -8.807859     -14.02006     -7.664592
 70            170          -11.43061     -15.17706     -9.901487
 80            170          -14.30369     -16.4572      -12.23801
 90            170          -14.80604     -17.26438     -12.85324
 100           170          -11.8225      -17.02674     -10.67739
 110           170          -8.504692     -15.97516     -7.789401
 120           170          -5.795584     -14.79337     -5.280367
 130           170          -3.660171     -13.91275     -3.268608
 140           170          -2.006085     -13.49874     -1.708537
 150           170          -.781214      -13.57815     -.55892  
 160           170           .036282      -14.04344      .2028   
 170           170           .452451      -14.55918      .587304 
 180           170           .467069      -14.60656      .60004  
 0             180          -2.891412     -999          -2.891412
 10            180          -2.954081     -999          -2.954081
 20            180          -3.338207     -999          -3.338207
 30            180          -4.068396     -999          -4.068396
 40            180          -5.184532     -999          -5.184532
 50            180          -6.759685     -999          -6.759685
 60            180          -8.937077     -999          -8.937077
 70            180          -11.9903      -999          -11.9903 
 80            180          -16.11387     -999          -16.11387
 90            180          -17.60508     -999          -17.60508
 100           180          -13.1829      -999          -13.1829 
 110           180          -9.098996     -999          -9.098996
 120           180          -6.068455     -999          -6.068455
 130           180          -3.771156     -999          -3.771156
 140           180          -2.02179      -999          -2.02179 
 150           180          -.735115      -999          -.735115 
 160           180           .124205      -999           .124205 
 170           180           .568336      -999           .568336 
 180           180           .60004       -999           .60004  
 0             190          -3.024383     -18.09801     -2.891412
 10            190          -3.111945     -16.41855     -2.913712
 20            190          -3.502106     -14.67208     -3.182434
 30            190          -4.219002     -13.53272     -3.738007
 40            190          -5.298016     -13.08763     -4.629704
 50            190          -6.7966       -13.27905     -5.916024
 60            190          -8.807859     -14.02006     -7.664592
 70            190          -11.43061     -15.17706     -9.901487
 80            190          -14.30369     -16.4572      -12.23801
 90            190          -14.80604     -17.26438     -12.85324
 100           190          -11.8225      -17.02674     -10.67739
 110           190          -8.504692     -15.97516     -7.789401
 120           190          -5.795584     -14.79337     -5.280367
 130           190          -3.660171     -13.91275     -3.268608
 140           190          -2.006085     -13.49874     -1.708537
 150           190          -.781214      -13.57815     -.55892  
 160           190           .036282      -14.04344      .2028   
 170           190           .452451      -14.55918      .587304 
 180           190           .467069      -14.60656      .60004  
 0             200          -3.431696     -12.21038     -2.891412
 10            200          -3.583235     -10.61978     -2.799195
 20            200          -3.951487     -8.944048     -2.756388
 30            200          -4.552494     -7.827831     -2.878142
 40            200          -5.397268     -7.372376     -3.263195
 50            200          -6.480469     -7.530505     -3.963529
 60            200          -7.748855     -8.219161     -4.967345
 70            200          -9.017233     -9.303978     -6.147939
 80            200          -9.835746     -10.49604     -7.143055
 90            200          -9.622383     -11.23675     -7.344683
 100           200          -8.3439       -11.01449     -6.466773
 110           200          -6.568327     -10.03895     -4.955498
 120           200          -4.777129     -8.933243     -3.365609
 130           200          -3.185858     -8.106444     -1.973335
 140           200          -1.874417     -7.720171     -.86978  
 150           200          -.876645      -7.797331     -.073253 
 160           200          -.212647      -8.227286      .424274 
 170           200           .102843      -8.69032       .641435 
 180           200           .059756      -8.718926      .60004  
 0             210          -4.140799     -8.912012     -2.891412
 10            210          -4.357034     -7.465298     -2.628531
 20            210          -4.536981     -5.910028     -2.159167
 30            210          -4.697457     -4.838357     -1.757036
 40            210          -4.861928     -4.371097     -1.599282
 50            210          -5.03551      -4.477636     -1.737322
 60            210          -5.190333     -5.081141     -2.125094
 70            210          -5.265949     -6.046784     -2.628542
 80            210          -5.186527     -7.095111     -3.026507
 90            210          -4.893209     -7.729934     -3.073664
 100           210          -4.376537     -7.53027      -2.662911
 110           210          -3.684993     -6.673662     -1.916858
 120           210          -2.904383     -5.6894       -1.06707 
 130           210          -2.128605     -4.947832     -.303063 
 140           210          -1.440897     -4.602619      .270126 
 150           210          -.90765       -4.670966      .616473 
 160           210          -.578377      -5.040181      .750453 
 170           210          -.486592      -5.419621      .722903 
 180           210          -.649347      -5.42056       .60004  
 0             220          -5.206333     -6.730062     -2.891412
 10            220          -5.398882     -5.475569     -2.426756
 20            220          -4.973735     -4.092716     -1.500623
 30            220          -4.201274     -3.095088     -.602757 
 40            220          -3.380558     -2.62218       .025463 
 50            220          -2.667561     -2.663977      .344531 
 60            220          -2.103121     -3.152051      .414305 
 70            220          -1.673186     -3.953258      .345022 
 80            220          -1.346006     -4.807508      .269653 
 90            220          -1.090896     -5.304054      .30487  
 100           220          -.887264      -5.12949       .500532 
 110           220          -.727961      -4.422555      .816616 
 120           220          -.618611      -3.596213      1.153228
 130           220          -.574007      -2.964538      1.403472
 140           220          -.612641      -2.666824      1.490904
 150           220          -.750209      -2.713928      1.388289
 160           220          -.992339      -2.996629      1.130428
 170           220          -1.326583     -3.269141      .820156 
 180           220          -1.714881     -3.23861       .60004  
 0             230          -6.730062     -5.206333     -2.891412
 10            230          -6.616794     -4.182396     -2.22091 
 20            230          -4.951132     -3.023491     -.870929 
 30            230          -3.040672     -2.138445      .444128 
 40            230          -1.448768     -1.675372      1.449708
 50            230          -.240555      -1.645287      2.123929
 60            230           .637507      -1.990513      2.529621
 70            230           1.249167     -2.585364      2.752334
 80            230           1.645683     -3.204301      2.875511
 90            230           1.862164     -3.539533      2.962302
 100           230           1.917853     -3.385801      3.040124
 110           230           1.817527     -2.841398      3.095259
 120           230           1.553829     -2.194913      3.082271
 130           230           1.111065     -1.687764      2.943618
 140           230           .471833      -1.435991      2.632151
 150           230          -.369846      -1.445072      2.136032
 160           230          -1.380442     -1.619704      1.511874
 170           230          -2.431819     -1.774239      .919705 
 180           230          -3.23861      -1.714881      .60004  
 0             240          -8.912012     -4.140799     -2.891412
 10            240          -7.806186     -3.372187     -2.03601 
 20            240          -4.421034     -2.481512     -.333589 
 30            240          -1.655679     -1.75367       1.305902
 40            240           .342505      -1.32499       2.598601
 50            240           1.771908     -1.222187      3.538229
 60            240           2.781256     -1.401403      4.185426
 70            240           3.465854     -1.755726      4.606952
 80            240           3.885294     -2.113117      4.858841
 90            240           4.074371     -2.275197      4.979641
 100           240           4.048734     -2.129402      4.986781
 110           240           3.80758      -1.736621      4.876233
 120           240           3.33467      -1.269459      4.626435
 130           240           2.598269     -.886756       4.206634
 140           240           1.550907     -.671907       3.590484
 150           240           .133193      -.627581       2.779743
 160           240          -1.696984     -.685171       1.848622
 170           240          -3.813803     -.727887       1.007966
 180           240          -5.42056      -.649347       .60004  
 0             250          -12.21038     -3.431696     -2.891412
 10            250          -8.633278     -2.926251     -1.892599
 20            250          -3.65211      -2.328655      .070136 
 30            250          -.447504      -1.798079      1.939799
 40            250           1.720795     -1.432913      3.434429
 50            250           3.240784     -1.263358      4.558494
 60            250           4.305979     -1.263319      5.369169
 70            250           5.021816     -1.36099       5.920851
 80            250           5.448132     -1.453976      6.254667
 90            250           5.617165     -1.443464      6.397236
 100           250           5.541375     -1.282914      6.361197
 110           250           5.216256     -1.00264       6.146415
 120           250           4.619777     -.682987       5.742251
 130           250           3.708251     -.404105       5.131958
 140           250           2.406672     -.212248       4.302002
 150           250           .58927       -.110373       3.263822
 160           250          -1.95126      -.064441       2.104121
 170           250          -5.44813      -.02179        1.072845
 180           250          -8.718926      .059756       .60004  
 0             260          -18.09801     -3.024383     -2.891412
 10            260          -8.81116      -2.770767     -1.805619
 20            260          -2.949463     -2.455136      .31503  
 30            260           .394948      -2.135001      2.321951
 40            260           2.607989     -1.85442       3.93666 
 50            260           4.152257     -1.632952      5.169467
 60            260           5.233101     -1.465073      6.07488 
 70            260           5.956097     -1.326486      6.700447
 80            260           6.378644     -1.185237      7.079878
 90            260           6.530264     -1.015318      7.234231
 100           260           6.421015     -.807669       7.173899
 110           260           6.044069     -.572738       6.900296
 120           260           5.374061     -.333476       6.407605
 130           260           4.360234     -.113999       5.685792
 140           260           2.909814      .069571       4.728156
 150           260           .847495       .212769       3.552017
 160           260          -2.196979      .320957       2.252269
 170           260          -7.159535      .403602       1.104947
 180           260          -14.60656      .467069       .60004  
 0             270          -999          -2.891412     -2.891412
 10            270          -8.374069     -2.859122     -1.784072
 20            270          -2.486418     -2.763897      .387358 
 30            270           .811981      -2.610496      2.439801
 40            270           2.993972     -2.406324      4.094424
 50            270           4.517745     -2.160736      5.363001
 60            270           5.583319     -1.884268      6.299047
 70            270           6.292456     -1.587879      6.947943
 80            270           6.69979      -1.282321      7.341162
 90            270           6.832769     -.97766        7.498117
 100           270           6.69979      -.682975       7.428513
 110           270           6.292456     -.406194       7.134151
 120           270           5.583319     -.154051       6.610562
 130           270           4.517745      .067882       5.849726
 140           270           2.993972      .255119       4.847265
 150           270           .811981       .404159       3.623156
 160           270          -2.486418      .5124         2.277143
 170           270          -8.374069      .578043       1.098394
 180           270          -999           .60004        .60004  
 0             280          -18.09801     -3.024383     -2.891412
 10            280          -7.601585     -3.167004     -1.830981
 20            280          -2.318255     -3.18031       .282372 
 30            280           .798981      -3.081012      2.288896
 40            280           2.887766     -2.903241      3.903766
 50            280           4.350013     -2.675057      5.135951
 60            280           5.369566     -2.40643       6.039823
 70            280           6.042331     -2.093025      6.662981
 80            280           6.420502     -1.729705      7.039177
 90            280           6.53027      -1.323658      7.189466
 100           280           6.379074     -.898622       7.124194
 110           280           5.957475     -.488839       6.844706
 120           280           5.236803     -.128379       6.345139
 130           280           4.161186      .157681       5.615593
 140           280           2.628489      .357586       4.650107
 150           280           .443195       .473191       3.468519
 160           280          -2.818016      .517351       2.172588
 170           280          -8.252753      .509065       1.051324
 180           280          -14.60656      .467069       .60004  
 0             290          -12.21038     -3.431696     -2.891412
 10            290          -6.736234     -3.693495     -1.943369
 20            290          -2.42582      -3.67764       .003518 
 30            290           .378582      -3.489489      1.871963
 40            290           2.305384     -3.271546      3.366918
 50            290           3.659423     -3.104492      4.489691
 60            290           4.597642     -2.978894      5.296991
 70            290           5.207525     -2.815741      5.843269
 80            290           5.538822     -2.519883      6.169758
 90            290           5.617177     -2.050138      6.303144
 100           290           5.449852     -1.454047      6.256083
 110           290           5.02722      -.835113       6.028439
 120           290           4.320964     -.295132       5.609653
 130           290           3.278233      .098738       4.983477
 140           290           1.809022      .319768       4.13822 
 150           290          -.237994       .377389       3.090888
 160           290          -3.102213      .311664       1.942174
 170           290          -6.865486      .184265       .966126 
 180           290          -8.718926      .059756       .60004  
 0             300          -8.912012     -4.140799     -2.891412
 10            300          -5.896925     -4.465406     -2.112149
 20            300          -2.736214     -4.297469     -.436759 
 30            300          -.39846       -3.916699      1.199652
 40            300           1.274374     -3.621612      2.492902
 50            300           2.457933     -3.544595      3.430653
 60            300           3.268686     -3.651381      4.072182
 70            300           3.780963     -3.770472      4.484055
 80            300           4.041003     -3.657297      4.722457
 90            300           4.074392     -3.160614      4.82627 
 100           300           3.889504     -2.362034      4.813388
 110           300           3.478731     -1.486875      4.68033 
 120           300           2.818402     -.733257       4.406252
 130           300           1.86815      -.211771       3.961832
 140           300           .572358       .039556       3.324423
 150           300          -1.123309      .036165       2.505308
 160           300          -3.178647     -.157618       1.599721
 170           300          -5.081431     -.430304       .849418 
 180           300          -5.42056      -.649347       .60004  
 0             310          -6.730062     -5.206333     -2.891412
 10            310          -5.129364     -5.545252     -2.322032
 20            310          -3.132069     -5.149505     -1.01438 
 30            310          -1.433507     -4.546075      .293583 
 40            310          -.145871      -4.178959      1.300138
 50            310           .773219      -4.201296      1.972666
 60            310           1.386376     -4.560408      2.37034 
 70            310           1.747651     -5.019842      2.577296
 80            310           1.897471     -5.168213      2.676712
 90            310           1.862196     -4.675351      2.732713
 100           310           1.654654     -3.657976      2.774882
 110           310           1.275646     -2.513169      2.792238
 120           310           .71753       -1.545445      2.7421  
 130           310          -.027595      -.895679       2.570316
 140           310          -.94938       -.605608       2.236206
 150           310          -1.979279     -.657506       1.741999
 160           310          -2.923417     -.973395       1.170434
 170           310          -3.437252     -1.397266      .711735 
 180           310          -3.23861      -1.714881      .60004  
 0             320          -5.206333     -6.730062     -2.891412
 10            320          -4.456472     -7.048812     -2.551723
 20            320          -3.477236     -6.404972     -1.688627
 30            320          -2.553143     -5.605002     -.806039 
 40            320          -1.819883     -5.191707     -.176166 
 50            320          -1.312147     -5.308936      .144172 
 60            320          -1.017326     -5.893529      .20605  
 70            320          -.904925      -6.682696      .11384  
 80            320          -.940337      -7.12239      -.00305  
 90            320          -1.090846     -6.654384     -.026404 
 100           320          -1.326993     -5.420795      .101908 
 110           320          -1.620035     -4.022843      .352958 
 120           320          -1.935914     -2.863301      .6354   
 130           320          -2.228006     -2.096706      .84844  
 140           320          -2.435211     -1.762826      .924281 
 150           320          -2.495138     -1.845218      .852268 
 160           320          -2.373869     -2.26282       .69231  
 170           320          -2.091292     -2.82675       .566828 
 180           320          -1.714881     -3.23861       .60004  
 0             330          -4.140799     -8.912012     -2.891412
 10            330          -3.899633     -9.192739     -2.774958
 20            330          -3.674867     -8.324879     -2.394861
 30            330          -3.519867     -7.377506     -2.023448
 40            330          -3.478474     -6.943429     -1.863888
 50            330          -3.572581     -7.142767     -1.990396
 60            330          -3.799334     -7.906857     -2.374276
 70            330          -4.132382     -8.972616     -2.900147
 80            330          -4.522134     -9.686284     -3.367698
 90            330          -4.893127     -9.252819     -3.537147
 100           330          -5.14283      -7.825492     -3.269936
 110           330          -5.156195     -6.213154     -2.642299
 120           330          -4.850908     -4.896869     -1.863528
 130           330          -4.233281     -4.032338     -1.121348
 140           330          -3.406818     -3.655036     -.518854 
 150           330          -2.519834     -3.75194      -.082038 
 160           330          -1.707193     -4.245625      .216772 
 170           330          -1.064767     -4.926562      .430441 
 180           330          -.649347      -5.42056       .60004  
 0             340          -3.431696     -12.21038     -2.891412
 10            340          -3.481363     -12.45109     -2.962999
 20            340          -3.721016     -11.41076     -3.038319
 30            340          -4.145515     -10.36621     -3.215704
 40            340          -4.754754     -9.927466     -3.602316
 50            340          -5.549286     -10.19025     -4.266969
 60            340          -6.52115      -11.08292     -5.218448
 70            340          -7.632787     -12.35236     -6.370431
 80            340          -8.765191     -13.28582     -7.451788
 90            340          -9.622238     -12.88576     -7.944103
 100           340          -9.722118     -11.30539     -7.431701
 110           340          -8.798632     -9.531911     -6.139514
 120           340          -7.173384     -8.100511     -4.601954
 130           340          -5.355507     -7.162079     -3.155225
 140           340          -3.659565     -6.747937     -1.924521
 150           340          -2.225331     -6.848934     -.938568 
 160           340          -1.111896     -7.393626     -.193781 
 170           340          -.346145      -8.161406      .318517 
 180           340           .059756      -8.718926      .60004  
 0             350          -3.024383     -18.09801     -2.891412
 10            350          -3.221495     -18.30936     -3.088953
 20            350          -3.690919     -17.16192     -3.49989 
 30            350          -4.428102     -16.0635      -4.139863
 40            350          -5.44038      -15.62643     -5.043041
 50            350          -6.752382     -15.92938     -6.25685 
 60            350          -8.411315     -16.89914     -7.835984
 70            350          -10.47735     -18.29209     -9.812611
 80            350          -12.89677     -19.36652     -12.01386
 90            350          -14.80578     -18.99013     -13.40208
 100           350          -14.02279     -17.31182     -12.35282
 110           350          -11.10866     -15.43887     -9.744752
 120           350          -8.113667     -13.93731     -7.104454
 130           350          -5.581434     -12.95284     -4.850955
 140           350          -3.527318     -12.51402     -3.01086 
 150           350          -1.912562     -12.61461     -1.557969
 160           350          -.713617      -13.1881      -.474653 
 170           350           .078738      -14.00896      .244956 
 180           350           .467069      -14.60656      .60004  
 0             360          -2.891412     -999          -2.891412
 10            360          -3.133327     -999          -3.133327
 20            360          -3.669289     -999          -3.669289
 30            360          -4.49783      -999          -4.49783 
 40            360          -5.632805     -999          -5.632805
 50            360          -7.114288     -999          -7.114288
 60            360          -9.02737      -999          -9.02737 
 70            360          -11.52729     -999          -11.52729
 80            360          -14.76675     -999          -14.76675
 90            360          -17.60472     -999          -17.60472
 100           360          -15.71162     -999          -15.71162
 110           360          -11.64841     -999          -11.64841
 120           360          -8.235559     -999          -8.235559
 130           360          -5.550201     -999          -5.550201
 140           360          -3.431404     -999          -3.431404
 150           360          -1.786665     -999          -1.786665
 160           360          -.574832      -999          -.574832 
 170           360           .219301      -999           .219301 
 180           360           .60004       -999           .60004  
