                   ****************************************
                     MINI-NUMERICAL ELECTROMAGNETICS CODE
                                   MININEC
                       06-29-2022              11:51:43
                   ****************************************
 
FREQUENCY (MHZ): 28.5 
    WAVE LENGTH =  10.5193  METERS
 
ENVIRONMENT (+1 FOR FREE SPACE, -1 FOR GROUND PLANE):  1 
 
NO. OF WIRES: 22 
 
WIRE NO. 1 
            COORDINATES                                 END         NO. OF
   X             Y             Z          RADIUS     CONNECTION     SEGMENTS
-2.52984       0             0                           0 
-2.50444       0             0             .000512       0             1 
 
WIRE NO. 2 
            COORDINATES                                 END         NO. OF
   X             Y             Z          RADIUS     CONNECTION     SEGMENTS
-2.50444       0             0                           1 
-2.45364       0             0             .000512       0             1 
 
WIRE NO. 3 
            COORDINATES                                 END         NO. OF
   X             Y             Z          RADIUS     CONNECTION     SEGMENTS
-2.45364       0             0                           2 
-2.35204       0             0             .000512       0             1 
 
WIRE NO. 4 
            COORDINATES                                 END         NO. OF
   X             Y             Z          RADIUS     CONNECTION     SEGMENTS
-2.35204       0             0                           3 
-2.14884       0             0             .000512       0             1 
 
WIRE NO. 5 
            COORDINATES                                 END         NO. OF
   X             Y             Z          RADIUS     CONNECTION     SEGMENTS
-2.14884       0             0                           4 
 0             0             0             .000512       0             6 
 
WIRE NO. 6 
            COORDINATES                                 END         NO. OF
   X             Y             Z          RADIUS     CONNECTION     SEGMENTS
-2.52984       0             0                          -1 
-2.52984       0             .0254         .000512       0             1 
 
WIRE NO. 7 
            COORDINATES                                 END         NO. OF
   X             Y             Z          RADIUS     CONNECTION     SEGMENTS
-2.52984       0             .0254                       6 
-2.50444       0             .0254         .000512       0             1 
 
WIRE NO. 8 
            COORDINATES                                 END         NO. OF
   X             Y             Z          RADIUS     CONNECTION     SEGMENTS
-2.50444       0             .0254                       7 
-2.45364       0             .0254         .000512       0             1 
 
WIRE NO. 9 
            COORDINATES                                 END         NO. OF
   X             Y             Z          RADIUS     CONNECTION     SEGMENTS
-2.45364       0             .0254                       8 
-2.35204       0             .0254         .000512       0             1 
 
WIRE NO. 10 
            COORDINATES                                 END         NO. OF
   X             Y             Z          RADIUS     CONNECTION     SEGMENTS
-2.35204       0             .0254                       9 
-2.14884       0             .0254         .000512       0             1 
 
WIRE NO. 11 
            COORDINATES                                 END         NO. OF
   X             Y             Z          RADIUS     CONNECTION     SEGMENTS
-2.14884       0             .0254                       10 
 0             0             .0254         .000512       0             6 
 
WIRE NO. 12 
            COORDINATES                                 END         NO. OF
   X             Y             Z          RADIUS     CONNECTION     SEGMENTS
 2.52984       0             0                           0 
 2.50444       0             0             .000512       0             1 
 
WIRE NO. 13 
            COORDINATES                                 END         NO. OF
   X             Y             Z          RADIUS     CONNECTION     SEGMENTS
 2.50444       0             0                           12 
 2.45364       0             0             .000512       0             1 
 
WIRE NO. 14 
            COORDINATES                                 END         NO. OF
   X             Y             Z          RADIUS     CONNECTION     SEGMENTS
 2.45364       0             0                           13 
 2.35204       0             0             .000512       0             1 
 
WIRE NO. 15 
            COORDINATES                                 END         NO. OF
   X             Y             Z          RADIUS     CONNECTION     SEGMENTS
 2.35204       0             0                           14 
 2.14884       0             0             .000512       0             1 
 
WIRE NO. 16 
            COORDINATES                                 END         NO. OF
   X             Y             Z          RADIUS     CONNECTION     SEGMENTS
 2.14884       0             0                           15 
 0             0             0             .000512      -5             6 
 
WIRE NO. 17 
            COORDINATES                                 END         NO. OF
   X             Y             Z          RADIUS     CONNECTION     SEGMENTS
 2.52984       0             0                          -12 
 2.52984       0             .0254         .000512       0             1 
 
WIRE NO. 18 
            COORDINATES                                 END         NO. OF
   X             Y             Z          RADIUS     CONNECTION     SEGMENTS
 2.52984       0             .0254                       17 
 2.50444       0             .0254         .000512       0             1 
 
WIRE NO. 19 
            COORDINATES                                 END         NO. OF
   X             Y             Z          RADIUS     CONNECTION     SEGMENTS
 2.50444       0             .0254                       18 
 2.45364       0             .0254         .000512       0             1 
 
WIRE NO. 20 
            COORDINATES                                 END         NO. OF
   X             Y             Z          RADIUS     CONNECTION     SEGMENTS
 2.45364       0             .0254                       19 
 2.35204       0             .0254         .000512       0             1 
 
WIRE NO. 21 
            COORDINATES                                 END         NO. OF
   X             Y             Z          RADIUS     CONNECTION     SEGMENTS
 2.35204       0             .0254                       20 
 2.14884       0             .0254         .000512       0             1 
 
WIRE NO. 22 
            COORDINATES                                 END         NO. OF
   X             Y             Z          RADIUS     CONNECTION     SEGMENTS
 2.14884       0             .0254                       21 
 0             0             .0254         .000512      -11            6 
 
                  **** ANTENNA GEOMETRY ****
 
WIRE NO.  1  COORDINATES                                CONNECTION PULSE
X             Y             Z             RADIUS        END1 END2  NO.
-             -             -                 -          -    -    0
 
WIRE NO.  2  COORDINATES                                CONNECTION PULSE
X             Y             Z             RADIUS        END1 END2  NO.
-2.50444       0             0             .000512        1    0    1
 
WIRE NO.  3  COORDINATES                                CONNECTION PULSE
X             Y             Z             RADIUS        END1 END2  NO.
-2.45364       0             0             .000512        2    0    2
 
WIRE NO.  4  COORDINATES                                CONNECTION PULSE
X             Y             Z             RADIUS        END1 END2  NO.
-2.35204       0             0             .000512        3    0    3
 
WIRE NO.  5  COORDINATES                                CONNECTION PULSE
X             Y             Z             RADIUS        END1 END2  NO.
-2.14884       0             0             .000512        4    5    4
-1.7907        0             0             .000512        5    5    5
-1.43256       0             0             .000512        5    5    6
-1.07442       0             0             .000512        5    5    7
-.71628        0             0             .000512        5    5    8
-.35814        0             0             .000512        5    0    9
 
WIRE NO.  6  COORDINATES                                CONNECTION PULSE
X             Y             Z             RADIUS        END1 END2  NO.
-2.52984       0             0             .000512       -1    0   10
 
WIRE NO.  7  COORDINATES                                CONNECTION PULSE
X             Y             Z             RADIUS        END1 END2  NO.
-2.52984       0             .0254         .000512        6    0   11
 
WIRE NO.  8  COORDINATES                                CONNECTION PULSE
X             Y             Z             RADIUS        END1 END2  NO.
-2.50444       0             .0254         .000512        7    0   12
 
WIRE NO.  9  COORDINATES                                CONNECTION PULSE
X             Y             Z             RADIUS        END1 END2  NO.
-2.45364       0             .0254         .000512        8    0   13
 
WIRE NO.  10  COORDINATES                               CONNECTION PULSE
X             Y             Z             RADIUS        END1 END2  NO.
-2.35204       0             .0254         .000512        9    0   14
 
WIRE NO.  11  COORDINATES                               CONNECTION PULSE
X             Y             Z             RADIUS        END1 END2  NO.
-2.14884       0             .0254         .000512       10   11   15
-1.7907        0             .0254         .000512       11   11   16
-1.43256       0             .0254         .000512       11   11   17
-1.07442       0             .0254         .000512       11   11   18
-.71628        0             .0254         .000512       11   11   19
-.35814        0             .0254         .000512       11    0   20
 
WIRE NO.  12  COORDINATES                               CONNECTION PULSE
X             Y             Z             RADIUS        END1 END2  NO.
-             -             -                 -          -    -    0
 
WIRE NO.  13  COORDINATES                               CONNECTION PULSE
X             Y             Z             RADIUS        END1 END2  NO.
 2.50444       0             0             .000512       12    0   21
 
WIRE NO.  14  COORDINATES                               CONNECTION PULSE
X             Y             Z             RADIUS        END1 END2  NO.
 2.45364       0             0             .000512       13    0   22
 
WIRE NO.  15  COORDINATES                               CONNECTION PULSE
X             Y             Z             RADIUS        END1 END2  NO.
 2.35204       0             0             .000512       14    0   23
 
WIRE NO.  16  COORDINATES                               CONNECTION PULSE
X             Y             Z             RADIUS        END1 END2  NO.
 2.14884       0             0             .000512       15   16   24
 1.7907        0             0             .000512       16   16   25
 1.43256       0             0             .000512       16   16   26
 1.07442       0             0             .000512       16   16   27
 .71628        0             0             .000512       16   16   28
 .35814        0             0             .000512       16   16   29
 0             0             0             .000512       16   -5   30
 
WIRE NO.  17  COORDINATES                               CONNECTION PULSE
X             Y             Z             RADIUS        END1 END2  NO.
 2.52984       0             0             .000512      -12    0   31
 
WIRE NO.  18  COORDINATES                               CONNECTION PULSE
X             Y             Z             RADIUS        END1 END2  NO.
 2.52984       0             .0254         .000512       17    0   32
 
WIRE NO.  19  COORDINATES                               CONNECTION PULSE
X             Y             Z             RADIUS        END1 END2  NO.
 2.50444       0             .0254         .000512       18    0   33
 
WIRE NO.  20  COORDINATES                               CONNECTION PULSE
X             Y             Z             RADIUS        END1 END2  NO.
 2.45364       0             .0254         .000512       19    0   34
 
WIRE NO.  21  COORDINATES                               CONNECTION PULSE
X             Y             Z             RADIUS        END1 END2  NO.
 2.35204       0             .0254         .000512       20    0   35
 
WIRE NO.  22  COORDINATES                               CONNECTION PULSE
X             Y             Z             RADIUS        END1 END2  NO.
 2.14884       0             .0254         .000512       21   22   36
 1.7907        0             .0254         .000512       22   22   37
 1.43256       0             .0254         .000512       22   22   38
 1.07442       0             .0254         .000512       22   22   39
 .71628        0             .0254         .000512       22   22   40
 .35814        0             .0254         .000512       22   22   41
 0             0             .0254         .000512       22  -11   42
 
NO. OF SOURCES :  1 
PULSE NO., VOLTAGE MAGNITUDE, PHASE (DEGREES):  31 , 1 , 0 
NUMBER OF LOADS 0 
 
FILL MATRIX  : 11:54:26
FACTOR MATRIX: 11:54:50
 
********************    SOURCE DATA     ********************
PULSE  31     VOLTAGE = ( 1 , 0 J)
              CURRENT = ( 9.921159E-07 , 1.289494E-02 J)
              IMPEDANCE = ( 5.966562E-03 ,-77.54983 J)
              POWER =  4.96058E-07  WATTS
 
********************     FAR FIELD      ********************
 
ZENITH ANGLE : INITIAL,INCREMENT,NUMBER:  0 , 10 , 19 
AZIMUTH ANGLE: INITIAL,INCREMENT,NUMBER:  0 , 10 , 37 
 
 
FILENAME (NAME.OUT): FDP18.GNN
 
********************    PATTERN DATA    ********************
ZENITH        AZIMUTH       VERTICAL      HORIZONTAL    TOTAL
 ANGLE         ANGLE        PATTERN (DB)  PATTERN (DB)  PATTERN (DB)
 0             0            -3.010784     -999          -3.010784 
 10            0            -3.251125     -999          -3.251125 
 20            0            -3.785818     -999          -3.785818 
 30            0            -4.613396     -999          -4.613396 
 40            0            -5.747837     -999          -5.747837 
 50            0            -7.229263     -999          -7.229263 
 60            0            -9.142937     -999          -9.142937 
 70            0            -11.64446     -999          -11.64446 
 80            0            -14.88979     -999          -14.88979 
 90            0            -17.74415     -999          -17.74415 
 100           0            -15.85318     -999          -15.85318 
 110           0            -11.78168     -999          -11.78168 
 120           0            -8.365068     -999          -8.365068 
 130           0            -5.678474     -999          -5.678474 
 140           0            -3.559074     -999          -3.559074 
 150           0            -1.914142     -999          -1.914142 
 160           0            -.7023117     -999          -.7023117 
 170           0             9.179587E-02 -999           9.179587E-02 
 180           0             .4725295     -999           .4725295 
 0             10           -3.143757     -18.21757     -3.010784 
 10            10           -3.338972     -18.44057     -3.206835 
 20            10           -3.807171     -17.30309     -3.617202 
 30            10           -4.543522     -16.20815     -4.257141 
 40            10           -5.555505     -15.77209     -5.160812 
 50            10           -6.867826     -16.07469     -6.375486 
 60            10           -8.527984     -17.04247     -7.955932 
 70            10           -10.59696     -18.43084     -9.934912 
 80            10           -13.02326     -19.49546     -12.14078 
 90            10           -14.94515     -19.11038     -13.53613 
 100           10           -14.16685     -17.43113     -12.48892 
 110           10           -11.24608     -15.56076     -9.87795 
 120           10           -8.246109     -14.06133     -7.235121 
 130           10           -5.711519     -13.07787     -4.980233 
 140           10           -3.656024     -12.63935     -3.139167 
 150           10           -2.040657     -12.73951     -1.685799 
 160           10           -.8414744     -13.31245     -.6023104 
 170           10           -4.889855E-02 -14.13351      .117444 
 180           10            .3395579     -14.73426      .4725304 
 0             20           -3.551073     -12.32987     -3.010784 
 10            20           -3.598562     -12.58156     -3.081669 
 20            20           -3.836687     -11.55132     -3.157579 
 30            20           -4.260803     -10.51049     -3.336537 
 40            20           -4.871011     -10.07258     -3.725253 
 50            20           -5.667206     -10.33513     -4.391734 
 60            20           -6.642263     -11.22576     -5.345149 
 70            20           -7.758216     -12.4903      -6.498982 
 80            20           -8.896997     -13.41453     -7.582758 
 90            20           -9.761532     -13.00604     -8.077261 
 100           20           -9.866556     -11.42483     -7.565838 
 110           20           -8.942348     -9.653524     -6.273058 
 120           20           -7.312886     -8.224242     -4.734364 
 130           20           -5.490793     -7.286812     -3.286277 
 140           20           -3.791988     -6.873009     -2.054486 
 150           20           -2.355773     -6.973623     -1.067503 
 160           20           -1.240945     -7.51777      -.3218674 
 170           20           -.4743273     -8.286021      .1908644 
 180           20           -6.775614E-02 -8.846549      .4725346 
 0             30           -4.260187     -9.031458     -3.010784 
 10            30           -4.016196     -9.322145     -2.894418 
 20            30           -3.79082      -8.463904     -2.516661 
 30            30           -3.637108     -7.520678     -2.148198 
 40            30           -3.598103     -7.087893     -1.991178 
 50            30           -3.695596     -7.286741     -2.119765 
 60            30           -3.92604      -8.048803     -2.505208 
 70            30           -4.263214     -9.109444     -3.032429 
 80            30           -4.65719      -9.814247     -3.501068 
 90            30           -5.032347     -9.37349      -3.671352 
 100           30           -5.285586     -7.94498      -3.404491 
 110           30           -5.300856     -6.334685     -2.776742 
 120           30           -4.995047     -5.02015      -1.997243 
 130           30           -4.374998     -4.156582     -1.254079 
 140           30           -3.545013     -3.779427     -.6503005 
 150           30           -2.654215     -3.876252     -.2120541 
 160           30           -1.838714     -4.369742      8.793868E-02 
 170           30           -1.193939     -5.051234      .3026129 
 180           30           -.7768707     -5.548142      .4725327 
 0             40           -5.325734     -6.849483     -3.010785 
 10            40           -4.572767     -7.176834     -2.672143 
 20            40           -3.595021     -6.541903     -1.812831 
 30            40           -2.674221     -5.746392     -.9337995 
 40            40           -1.944549     -5.334478     -.3064943 
 50            40           -1.440218     -5.451337      .0120561 
 60            40           -1.148452     -6.033839      .0727022 
 70            40           -1.038956     -6.81781      -2.039028E-02 
 80            40           -1.077028     -7.249821     -.1379156 
 90            40           -1.230021     -6.775721     -.1616666 
 100           40           -1.468458     -5.540762     -3.348689E-02 
 110           40           -1.763346     -4.144104      .2177473 
 120           40           -2.080442     -2.986055      .5006518 
 130           40           -2.372456     -2.220415      .7145679 
 140           40           -2.57805      -1.886995      .7915457 
 150           40           -2.634719     -1.969313      .7210533 
 160           40           -2.509093     -2.386803      .5628208 
 170           40           -2.222141     -2.951629      .4387511 
 180           40           -1.842418     -3.366165      .4725323 
 0             50           -6.849483     -5.325734     -3.010785 
 10            50           -5.246324     -5.67156      -2.443401 
 20            50           -3.253234     -5.28358      -1.140486 
 30            50           -1.559049     -4.684885      .1637274 
 40            50           -.274945      -4.319395      1.167881 
 50            50            .6413594     -4.34124       1.838887 
 60            50            1.252367     -4.698048      2.235623 
 70            50            1.611709     -5.152695      2.441917 
 80            50            1.759874     -5.294724      2.540962 
 90            50            1.723059     -4.797021      2.59678 
 100           50            1.514056     -3.778534      2.638878 
 110           50            1.133665     -2.634447      2.656402 
 120           50            .5742198     -1.667648      2.606703 
 130           50           -.1718664     -1.018806      2.435615 
 140           50           -1.093863     -.729265       2.102599 
 150           50           -2.122783     -.7812201      1.609934 
 160           50           -3.063187     -1.097449      1.0403 
 170           50           -3.570732     -1.522331      .5834712 
 180           50           -3.366166     -1.842416      .4725332 
 0             60           -9.03146      -4.260187     -3.010784 
 10            60           -6.016218     -4.589819     -2.234382 
 20            60           -2.861873     -4.427847     -.5643195 
 30            60           -.5284133     -4.051297      1.068303 
 40            60            1.141829     -3.758168      2.359407 
 50            60            2.323431     -3.680703      3.295857 
 60            60            3.132756     -3.785226      3.936629 
 70            60            3.643868     -3.900685      4.348013 
 80            60            3.902852     -3.782939      4.586147 
 90            60            3.935285     -3.282942      4.689859 
 100           60            3.749473     -2.48332       4.676983 
 110           60            3.337739     -1.60828       4.54411 
 120           60            2.676467     -.8553912      4.270425 
 130           60            1.72521      -.3346844      3.8266 
 140           60            .428448      -8.381103E-02  3.190205 
 150           60           -1.267754     -8.771755E-02  2.372558 
 160           60           -3.322047     -.2819415      1.469094 
 170           60           -5.218788     -.5557669      .720953 
 180           60           -5.548145     -.7768707      .4725318 
 0             70           -12.32987     -3.551073     -3.010784 
 10            70           -6.860036     -3.816037     -2.066293 
 20            70           -2.556266     -3.804011     -.1251439 
 30            70            .2451102     -3.618945      1.739693 
 40            70            2.170161     -3.402638      3.23262 
 50            70            3.523059     -3.235528      4.35428 
 60            70            4.460413     -3.108532      5.160915 
 70            70            5.069623     -2.943074      5.70683 
 80            70            5.400299     -2.644751      6.033106 
 90            70            5.478089     -2.173274      6.166412 
 100           70            5.310204     -1.576292      6.119414 
 110           70            4.886992     -.9573516      5.891949 
 120           70            4.180106     -.4178125      5.473501 
 130           70            3.136638     -.0243841      4.847923 
 140           70            1.666529      .1961651      4.003616 
 150           70           -.3815565      .2532809      2.95779 
 160           70           -3.246649      .1867139      1.811168 
 170           70           -7.007657      5.826064E-02  .8374872 
 180           70           -8.846555     -6.775982E-02  .4725304 
 0             80           -18.21757     -3.143757     -3.010784 
 10            80           -7.732424     -3.287906     -1.95448 
 20            80           -2.453184     -3.302904      .1530418 
 30            80            .6624781     -3.205172      2.156015 
 40            80            2.750469     -3.0284        3.769032 
 50            80            4.21217      -2.800613      5.000168 
 60            80            5.231352     -2.531795      5.90347 
 70            80            5.903795     -2.217793      6.526302 
 80            80            6.281693     -1.853842      6.902341 
 90            80            6.391196     -1.447376      7.05258 
 100           80            6.239735     -1.022137      6.987377 
 110           80            5.81786      -.6124968      6.70807 
 120           80            5.096868     -.2522937      6.208847 
 130           80            4.020876      .0333478      5.479868 
 140           80            2.48766       .2328635      4.515316 
 150           80            .3016378      .3479262      3.335182 
 160           80           -2.960719      .391406       2.041374 
 170           80           -8.39722       .3823886      .9225839 
 180           80           -14.73426      .3395583      .4725309 
 0             90           -145.4539     -3.010785     -3.010785 
 10            90           -8.513332     -2.978693     -1.907924 
 20            90           -2.625606     -2.8837        .2576016 
 30            90            .6728355     -2.730743      2.306606 
 40            90            2.854855     -2.527135      3.95944 
 50            90            4.378646     -2.282236      5.227045 
 60            90            5.444233     -2.006463      6.162555 
 70            90            6.15338      -1.710851      6.81115 
 80            90            6.56072      -1.406017      7.204228 
 90            90            6.693699     -1.102013      7.361163 
 100           90            6.56072      -.8079883      7.291641 
 110           90            6.15338      -.5318167      6.997474 
 120           90            5.444233     -.2801571      6.474242 
 130           90            4.378645     -5.863563E-02  5.713985 
 140           90            2.854853      .1282511      4.712441 
 150           90            .672836       .2769946      3.489762 
 160           90           -2.625603      .3850375      2.145872 
 170           90           -8.513327      .4505715      .9696119 
 180           90           -129.8057      .4725499      .4725499 
 0             100          -18.21757     -3.143757     -3.010784 
 10            100          -8.957008     -2.889303     -1.929556 
 20            100          -3.092438     -2.573369      .1851841 
 30            100           .2533043     -2.25338       2.188694 
 40            100           2.467118     -1.9733        3.801628 
 50            100           4.011916     -1.752657      5.033471 
 60            100           5.093154     -1.585759      5.938359 
 70            100           5.816477     -1.448428      6.563639 
 80            100           6.239307     -1.308623      6.942946 
 90            100           6.391191     -1.140239      7.097302 
 100           100           6.282208     -.9342285      7.037068 
 110           100           5.905543     -.7007141      6.763686 
 120           100           5.235854     -.4624997      6.271373 
 130           100           4.222417     -.2436601      5.550153 
 140           100           2.77253      -6.025797E-02  4.593458 
 150           100           .7110399      .0831416      3.418766 
 160           100          -2.331952      .1918745      2.121109 
 170           100          -7.290638      .2752709      .9762254 
 180           100          -14.73425      .3395617      .4725341 
 0             110          -12.32987     -3.551073     -3.010784 
 10            110          -8.779528     -3.044114     -2.016431 
 20            110          -3.798115     -2.446306     -.0594874 
 30            110          -.591526      -1.916432      1.806687 
 40            110           1.578111     -1.551937      3.299508 
 50            110           3.099103     -1.383155      4.422583 
 60            110           4.165086     -1.38395       5.232713 
 70            110           4.881565     -1.482543      5.784129 
 80            110           5.308489     -1.57726       6.117825 
 90            110           5.478081     -1.56895       6.260416 
 100           110           5.402858     -1.410998      6.224502 
 110           110           5.078366     -1.133144      6.009976 
 120           110           4.482576     -.8151582      5.606226 
 130           110           3.571911     -.5371404      4.996574 
 140           110           2.271474     -.3453197      4.167592 
 150           110           .4557391     -.2427525      3.130858 
 160           110          -2.082014     -.1954348      1.973258 
 170           110          -5.574766     -.1510646      .9441881 
 180           110          -8.846551     -6.775771E-02  .4725327 
 0             120          -9.031458     -4.260187     -3.010784 
 10            120          -7.946657     -3.489738     -2.159588 
 20            120          -4.567781     -2.599581     -.4627885 
 30            120          -1.80171      -1.872886      1.173186 
 40            120           .1978369     -1.444995      2.46398 
 50            120           1.628642     -1.342862      3.40256 
 60            120           2.639186     -1.522591      4.049168 
 70            120           3.324819     -1.877428      4.470421 
 80            120           3.745239     -2.236326      4.722203 
 90            120           3.935269     -2.401256      4.843022 
 100           120           3.910607     -2.258945      4.85035 
 110           120           3.670509     -1.869393      4.740128 
 120           120           3.19878      -1.404464      4.490803 
 130           120           2.463822     -1.022915      4.071691 
 140           120           1.41821      -.8079415      3.456574 
 150           120           2.759638E-03 -.7625064      2.647298 
 160           120          -1.824653     -.8180719      1.718072 
 170           120          -3.938841     -.8580861      .8795033 
 180           120          -5.548142     -.7768691      .4725341 
 0             130          -6.849483     -5.325734     -3.010785 
 10            130          -6.750003     -4.299894     -2.344075 
 20            130          -5.094979     -3.142052     -.9993173 
 30            130          -3.187302     -2.258673      .3121239 
 40            130          -1.595079     -1.796762      1.315588 
 50            130          -.3856051     -1.767221      1.988636 
 60            130           .4939335     -2.112578      2.393691 
 70            130           1.107069     -2.707492      2.616121 
 80            130           1.50504      -3.327491      2.73921 
 90            130           1.723038     -3.665856      2.826073 
 100           130           1.780304     -3.516477      2.904171 
 110           130           1.681643     -2.976125      2.959702 
 120           130           1.419708     -2.332159      2.947256 
 130           130           .9789724     -1.826214      2.809374 
 140           130           .3419353     -1.574297      2.498996 
 150           130          -.4975143     -1.582116      2.004294 
 160           130          -1.506159     -1.754272      1.381894 
 170           130          -2.556924     -1.905286      .7914434 
 180           130          -3.366165     -1.842416      .4725337 
 0             140          -5.325734     -6.849483     -3.010785 
 10            140          -5.526687     -5.593109     -2.549433 
 20            140          -5.110863     -4.212167     -1.627972 
 30            140          -4.34469      -3.216374     -.733654 
 40            140          -3.526669     -2.744782     -.1078152 
 50            140          -2.813962     -2.786968      .2098941 
 60            140          -2.248406     -3.275018      .27889 
 70            140          -1.816827     -4.075998      .2091975 
 80            140          -1.487541     -4.931026      .1337578 
 90            140          -1.230055     -5.430713      .1691828 
 100           140          -1.023905     -5.261364      .3652278 
 110           140          -.8620399     -4.558979      .6818689 
 120           140          -.750132      -3.735287      1.019213 
 130           140          -.7031745     -3.104642      1.270344 
 140           140          -.7399512     -2.806817      1.358765 
 150           140          -.8760148     -2.852584      1.257527 
 160           140          -1.117576     -3.132545      1.001102 
 170           140          -1.452264     -3.400974      .6921135 
 180           140          -1.842415     -3.366163      .4725351 
 0             150          -4.260187     -9.031458     -3.010784 
 10            150          -4.48137      -7.582905     -2.750622 
 20            150          -4.667498     -6.030014     -2.285204 
 30            150          -4.833961     -4.960587     -1.886475 
 40            150          -5.003237     -4.494728     -1.731206 
 50            150          -5.180164     -4.601629     -1.870932 
 60            150          -5.336396     -5.204827     -2.259775 
 70            150          -5.41141      -6.169939     -2.763797 
 80            150          -5.32958      -7.218538     -3.161821 
 90            150          -5.032404     -7.856792     -3.208597 
 100           150          -4.511518     -7.662809     -2.797061 
 110           150          -3.816272     -6.811305     -2.05023 
 120           150          -3.032878     -5.829537     -1.199543 
 130           150          -2.255233     -5.089069     -.4346636 
 140           150          -1.566623     -4.743689      .139444 
 150           150          -1.033063     -4.810768      .48684 
 160           150          -.7040705     -5.177257      .6217938 
 170           150          -.6129853     -5.5521        .5950615 
 180           150          -.7768689     -5.54814       .4725346 
 0             160          -3.551075     -12.32987     -3.010784 
 10            160          -3.705639     -10.73763     -2.920823 
 20            160          -4.077443     -9.064631     -2.881021 
 30            160          -4.682266     -7.950674     -3.005662 
 40            160          -5.531032     -7.496564     -3.393202 
 50            160          -6.618608     -7.655184     -4.095705 
 60            160          -7.891063     -8.343326     -5.100971 
 70            160          -9.162925     -9.427557     -6.282889 
 80            160          -9.981        -10.61989     -7.278372 
 90            160          -9.761625     -11.36389     -7.478946 
 100           160          -8.475997     -11.14766     -6.599212 
 110           160          -6.696166     -10.17743     -5.086604 
 120           160          -4.903302     -9.074299     -3.495875 
 130           160          -3.311478     -8.248421     -2.102903 
 140           160          -2.000061     -7.861882     -.9987087 
 150           160          -1.002692     -7.937884     -.2017222 
 160           160          -.3391337     -8.365123      .2962622 
 170           160          -2.410791E-02 -8.823307      .5138003 
 180           160          -6.775509E-02 -8.846544      .4725355 
 0             170          -3.143757     -18.21757     -3.010784 
 10            170          -3.233453     -16.53661     -3.035057 
 20            170          -3.625845     -14.7931      -3.305965 
 30            170          -4.3452       -13.65617     -3.863898 
 40            170          -5.426529     -13.21229     -4.757645 
 50            170          -6.928137     -13.40422     -6.046365 
 60            170          -8.942771     -14.14469     -7.797094 
 70            170          -11.57092     -15.30095     -10.03689 
 80            170          -14.44987     -16.58116     -12.37573 
 90            170          -14.94533     -17.39152     -12.98809 
 100           170          -11.95116     -17.16039     -10.80718 
 110           170          -8.630615     -16.11412     -7.917279 
 120           170          -5.921382     -14.93493     -5.407905 
 130           170          -3.786387     -14.05509     -3.396196 
 140           170          -2.132672     -13.64099     -1.836146 
 150           170          -.9081774     -13.71918     -.6865727 
 160           170          -9.087786E-02 -14.18173      7.523032E-02 
 170           170           .325131      -14.69249      .4598086 
 180           170           .3395559     -14.73425      .4725285 
 0             180          -3.010785     -139.4332     -3.010785 
 10            180          -3.07525      -137.7222     -3.07525 
 20            180          -3.461329     -135.9555     -3.461329 
 30            180          -4.193498     -134.8115     -4.193498 
 40            180          -5.311455     -134.3717     -5.311455 
 50            180          -6.888849     -134.5752     -6.888849 
 60            180          -9.069065     -135.3333     -9.069065 
 70            180          -12.12668     -136.5137     -12.12668 
 80            180          -16.25842     -137.8235     -16.25842 
 90            180          -17.74435     -138.6568     -17.74435 
 100           180          -13.31012     -138.4199     -13.31012 
 110           180          -9.224826     -137.3477     -9.224826 
 120           180          -6.194632     -136.1425     -6.194632 
 130           180          -3.89785      -135.2443     -3.89785 
 140           180          -2.148699     -134.8203     -2.148699 
 150           180          -.8623775     -134.8989     -.8623775 
 160           180          -3.177152E-03 -135.3729     -3.177152E-03 
 170           180           .4408522     -135.9016      .4408522 
 180           180           .4725327     -135.9499      .4725327 
 0             190          -3.143757     -18.21757     -3.010784 
 10            190          -3.233453     -16.53661     -3.035057 
 20            190          -3.625845     -14.7931      -3.305966 
 30            190          -4.3452       -13.65617     -3.863899 
 40            190          -5.426529     -13.21229     -4.757645 
 50            190          -6.928137     -13.40422     -6.046366 
 60            190          -8.942771     -14.14469     -7.797094 
 70            190          -11.57092     -15.30095     -10.03689 
 80            190          -14.44987     -16.58117     -12.37573 
 90            190          -14.94533     -17.39152     -12.98809 
 100           190          -11.95116     -17.1604      -10.80718 
 110           190          -8.630615     -16.11412     -7.917279 
 120           190          -5.921382     -14.93493     -5.407906 
 130           190          -3.786387     -14.05509     -3.396196 
 140           190          -2.132672     -13.64099     -1.836147 
 150           190          -.9081774     -13.71918     -.6865729 
 160           190          -9.087786E-02 -14.18173      7.523032E-02 
 170           190           .325131      -14.69249      .4598086 
 180           190           .3395559     -14.73426      .4725285 
 0             200          -3.551075     -12.32987     -3.010785 
 10            200          -3.705639     -10.73763     -2.920823 
 20            200          -4.077443     -9.064631     -2.881021 
 30            200          -4.682266     -7.950676     -3.005662 
 40            200          -5.531032     -7.496566     -3.393203 
 50            200          -6.618608     -7.655186     -4.095706 
 60            200          -7.891063     -8.343328     -5.100972 
 70            200          -9.162925     -9.427559     -6.282889 
 80            200          -9.981        -10.6199      -7.278373 
 90            200          -9.761625     -11.36389     -7.478946 
 100           200          -8.475997     -11.14766     -6.599212 
 110           200          -6.696166     -10.17743     -5.086604 
 120           200          -4.903302     -9.074301     -3.495875 
 130           200          -3.311478     -8.248422     -2.102904 
 140           200          -2.000061     -7.861884     -.9987094 
 150           200          -1.002692     -7.937885     -.2017225 
 160           200          -.3391337     -8.365124      .2962617 
 170           200          -2.410791E-02 -8.823309      .5138003 
 180           200          -6.775509E-02 -8.846546      .4725355 
 0             210          -4.260187     -9.03146      -3.010784 
 10            210          -4.48137      -7.582906     -2.750622 
 20            210          -4.667498     -6.030015     -2.285205 
 30            210          -4.833961     -4.960589     -1.886476 
 40            210          -5.003237     -4.494729     -1.731206 
 50            210          -5.180164     -4.60163      -1.870933 
 60            210          -5.336396     -5.204828     -2.259776 
 70            210          -5.41141      -6.16994      -2.763798 
 80            210          -5.32958      -7.218539     -3.161822 
 90            210          -5.032404     -7.856793     -3.208597 
 100           210          -4.511518     -7.66281      -2.797061 
 110           210          -3.816272     -6.811306     -2.05023 
 120           210          -3.032878     -5.829537     -1.199543 
 130           210          -2.255233     -5.08907      -.4346636 
 140           210          -1.566623     -4.743691      .1394435 
 150           210          -1.033063     -4.810771      .4868395 
 160           210          -.7040705     -5.177259      .6217933 
 170           210          -.6129853     -5.552101      .5950615 
 180           210          -.7768689     -5.548142      .4725346 
 0             220          -5.325734     -6.849484     -3.010785 
 10            220          -5.526687     -5.593112     -2.549434 
 20            220          -5.110863     -4.212168     -1.627973 
 30            220          -4.34469      -3.216375     -.7336549 
 40            220          -3.526669     -2.744784     -.1078163 
 50            220          -2.813962     -2.78697       .2098931 
 60            220          -2.248406     -3.275018      .2788895 
 70            220          -1.816827     -4.075999      .2091966 
 80            220          -1.487541     -4.931027      .1337568 
 90            220          -1.230055     -5.430714      .1691823 
 100           220          -1.023905     -5.261366      .3652273 
 110           220          -.8620399     -4.55898       .6818684 
 120           220          -.750132      -3.735289      1.019213 
 130           220          -.7031745     -3.104643      1.270343 
 140           220          -.7399512     -2.806819      1.358764 
 150           220          -.8760148     -2.852586      1.257527 
 160           220          -1.117576     -3.132547      1.001101 
 170           220          -1.452264     -3.400975      .6921126 
 180           220          -1.842415     -3.366165      .4725341 
 0             230          -6.849484     -5.325733     -3.010784 
 10            230          -6.750036     -4.299919     -2.344103 
 20            230          -5.094888     -3.142082     -.999301 
 30            230          -3.187304     -2.258678      .31212 
 40            230          -1.595065     -1.796728      1.315612 
 50            230          -.3855831     -1.767244      1.988639 
 60            230           .493921      -2.112535      2.393699 
 70            230           1.107065     -2.707428      2.616137 
 80            230           1.505053     -3.327539      2.739207 
 90            230           1.72304      -3.665738      2.826102 
 100           230           1.780302     -3.516452      2.904175 
 110           230           1.681645     -2.976131      2.959702 
 120           230           1.419744     -2.332223      2.947263 
 130           230           .9789807     -1.826231      2.809373 
 140           230           .3419392     -1.574315      2.498992 
 150           230          -.4974864     -1.582112      2.004311 
 160           230          -1.506134     -1.754227      1.381929 
 170           230          -2.556914     -1.90527       .7914563 
 180           230          -3.366166     -1.842415      .4725341 
 0             240          -9.03146      -4.260185     -3.010784 
 10            240          -7.946653     -3.489732     -2.159582 
 20            240          -4.567779     -2.599571     -.4627813 
 30            240          -1.801709     -1.872882      1.173188 
 40            240           .1978582     -1.445064      2.463964 
 50            240           1.628638     -1.34284       3.402565 
 60            240           2.63919      -1.522524      4.04919 
 70            240           3.324821     -1.877495      4.470407 
 80            240           3.745241     -2.236308      4.722206 
 90            240           3.935272     -2.401241      4.843027 
 100           240           3.910608     -2.258943      4.850351 
 110           240           3.670499     -1.869376      4.740124 
 120           240           3.198772     -1.404434      4.490806 
 130           240           2.463825     -1.022878      4.071705 
 140           240           1.418207     -.8079687      3.456562 
 150           240           2.764811E-03 -.7624747      2.647316 
 160           240          -1.824637     -.8180241      1.718106 
 170           240          -3.938844     -.8580877      .8795012 
 180           240          -5.548143     -.7768676      .4725346 
 0             250          -12.32987     -3.551073     -3.010784 
 10            250          -8.779524     -3.044108     -2.016425 
 20            250          -3.798117     -2.446326     -.0595 
 30            250          -.5915271     -1.916457      1.806676 
 40            250           1.578105     -1.551937      3.299504 
 50            250           3.099103     -1.383193      4.422572 
 60            250           4.165086     -1.383921      5.23272 
 70            250           4.881569     -1.482567      5.784127 
 80            250           5.308489     -1.577189      6.117837 
 90            250           5.478081     -1.568947      6.260416 
 100           250           5.402861     -1.410986      6.224506 
 110           250           5.078369     -1.133117      6.009984 
 120           250           4.482582     -.815162       5.606229 
 130           250           3.571911     -.5371451      4.996572 
 140           250           2.271484     -.3453197      4.167598 
 150           250           .4557404     -.242735       3.130867 
 160           250          -2.082012     -.1954242      1.973265 
 170           250          -5.574764     -.1510571      .9441943 
 180           250          -8.846553     -6.775771E-02  .4725327 
 0             260          -18.21757     -3.143757     -3.010784 
 10            260          -8.957008     -2.889304     -1.929557 
 20            260          -3.092438     -2.573359      .1851896 
 30            260           .2533058     -2.25338       2.188695 
 40            260           2.467118     -1.973318      3.801623 
 50            260           4.011916     -1.752665      5.033469 
 60            260           5.093154     -1.585732      5.938363 
 70            260           5.816477     -1.448386      6.563647 
 80            260           6.239307     -1.30862       6.942946 
 90            260           6.391191     -1.140269      7.097298 
 100           260           6.282208     -.9342328      7.037067 
 110           260           5.905545     -.7007062      6.763689 
 120           260           5.235854     -.4625083      6.271371 
 130           260           4.222417     -.2436656      5.550152 
 140           260           2.772529     -6.026375E-02  4.593457 
 150           260           .7110399      8.314617E-02  3.418769 
 160           260          -2.331952      .1918686      2.121105 
 170           260          -7.29064       .2752674      .9762222 
 180           260          -14.73426      .3395617      .4725341 
 0             270          -161.4837     -3.010785     -3.010785 
 10            270          -8.51333      -2.978678     -1.907913 
 20            270          -2.625605     -2.883703      .2576006 
 30            270           .6728369     -2.730714      2.306616 
 40            270           2.854855     -2.527135      3.95944 
 50            270           4.378646     -2.282222      5.227047 
 60            270           5.444233     -2.006464      6.162555 
 70            270           6.15338      -1.710852      6.811149 
 80            270           6.56072      -1.406019      7.204228 
 90            270           6.693699     -1.102032      7.36116 
 100           270           6.56072      -.8079866      7.291641 
 110           270           6.15338      -.5318167      6.997474 
 120           270           5.444233     -.2801585      6.474242 
 130           270           4.378645     -5.863301E-02  5.713985 
 140           270           2.854853      .1282511      4.712441 
 150           270           .672836       .2770077      3.489768 
 160           270          -2.625603      .3850399      2.145873 
 170           270          -8.513326      .4505687      .9696093 
 180           270          -129.7757      .4725499      .4725499 
 0             280          -18.21757     -3.143757     -3.010784 
 10            280          -7.732425     -3.287895     -1.954473 
 20            280          -2.453183     -3.302863      .1530608 
 30            280           .6624843     -3.205156      2.156024 
 40            280           2.750469     -3.028403      3.769031 
 50            280           4.212172     -2.800612      5.00017 
 60            280           5.231352     -2.53178       5.903473 
 70            280           5.903795     -2.217854      6.526294 
 80            280           6.281693     -1.853828      6.902343 
 90            280           6.391196     -1.447404      7.052576 
 100           280           6.239735     -1.0221        6.987383 
 110           280           5.817863     -.6125402      6.708064 
 120           280           5.096867     -.2522857      6.208848 
 130           280           4.020876      3.333701E-02  5.479865 
 140           280           2.48766       .2328635      4.515316 
 150           280           .3016388      .3479386      3.335189 
 160           280          -2.960719      .3914008      2.04137 
 170           280          -8.397219      .3823934      .922588 
 180           280          -14.73426      .3395583      .4725309 
 0             290          -12.32987     -3.551073     -3.010784 
 10            290          -6.860036     -3.816036     -2.066293 
 20            290          -2.556265     -3.804006     -.1251417 
 30            290           .2451161     -3.618955      1.739694 
 40            290           2.170163     -3.402623      3.232624 
 50            290           3.523046     -3.235509      4.354273 
 60            290           4.460419     -3.108425      5.160936 
 70            290           5.069623     -2.943049      5.706834 
 80            290           5.400305     -2.644796      6.033105 
 90            290           5.478089     -2.173248      6.166416 
 100           290           5.310201     -1.576265      6.119415 
 110           290           4.886996     -.9573745      5.891947 
 120           290           4.180116     -.4178032      5.47351 
 130           290           3.136634     -2.438905E-02  4.847919 
 140           290           1.666529      .1961651      4.003616 
 150           290          -.3815568      .253275       2.957786 
 160           290          -3.24665       .1867109      1.811166 
 170           290          -7.00766       5.825655E-02  .8374833 
 180           290          -8.846557     -6.775982E-02  .47253 
 0             300          -9.03146      -4.260185     -3.010784 
 10            300          -6.016225     -4.589834     -2.234393 
 20            300          -2.861884     -4.427898     -.5643476 
 30            300          -.528375      -4.051345      1.068315 
 40            300           1.14184      -3.758251      2.359395 
 50            300           2.323433     -3.680721      3.295855 
 60            300           3.132764     -3.785254      3.936631 
 70            300           3.643865     -3.900626      4.348018 
 80            300           3.902853     -3.783005      4.586138 
 90            300           3.935287     -3.28297       4.689856 
 100           300           3.749471     -2.483386      4.676967 
 110           300           3.337749     -1.608335      4.544105 
 120           300           2.676465     -.855452       4.270405 
 130           300           1.72521      -.3346911      3.826597 
 140           300           .4283983     -8.382027E-02  3.190174 
 150           300          -1.267751     -8.771069E-02  2.372563 
 160           300          -3.322049     -.2819423      1.469092 
 170           300          -5.218792     -.5557681      .7209515 
 180           300          -5.548146     -.7768691      .4725327 
 0             310          -6.849484     -5.325733     -3.010784 
 10            310          -5.246311     -5.671535     -2.443382 
 20            310          -3.253225     -5.283603     -1.140489 
 30            310          -1.55905      -4.684894      .1637234 
 40            310          -.2749898     -4.319353      1.167861 
 50            310           .6413442     -4.341215      1.838881 
 60            310           1.252382     -4.698043      2.235636 
 70            310           1.611726     -5.152561      2.441955 
 80            310           1.75987      -5.294894      2.540931 
 90            310           1.723061     -4.797092      2.596768 
 100           310           1.514058     -3.778558      2.638875 
 110           310           1.133696     -2.634447      2.656425 
 120           310           .5742289     -1.66765       2.606708 
 130           310          -.1718185     -1.018859      2.435617 
 140           310          -1.093951     -.7292449      2.102568 
 150           310          -2.122787     -.7812239      1.609929 
 160           310          -3.063186     -1.097447      1.040302 
 170           310          -3.570745     -1.52234       .5834604 
 180           310          -3.366167     -1.842415      .4725337 
 0             320          -5.325735     -6.84948      -3.010784 
 10            320          -4.57275      -7.176811     -2.672124 
 20            320          -3.595029     -6.541911     -1.812839 
 30            320          -2.674194     -5.746385     -.9337795 
 40            320          -1.944616     -5.33444      -.3065284 
 50            320          -1.440219     -5.451347      1.205249E-02 
 60            320          -1.148522     -6.033738      7.267419E-02 
 70            320          -1.038935     -6.817868     -2.038533E-02 
 80            320          -1.077015     -7.249747     -.1378904 
 90            320          -1.230016     -6.775681     -.1616537 
 100           320          -1.46844      -5.540804     -3.348532E-02 
 110           320          -1.763352     -4.144103      .2177433 
 120           320          -2.08046      -2.986017      .5006592 
 130           320          -2.372513     -2.22037       .7145626 
 140           320          -2.578068     -1.88701       .7915297 
 150           320          -2.634703     -1.969377      .7210261 
 160           320          -2.509091     -2.386798      .5628244 
 170           320          -2.222142     -2.951627      .438752 
 180           320          -1.84242      -3.366163      .4725323 
 0             330          -4.260189     -9.031456     -3.010785 
 10            330          -4.016208     -9.322157     -2.89443 
 20            330          -3.790756     -8.463831     -2.516595 
 30            330          -3.637139     -7.520532     -2.148178 
 40            330          -3.598179     -7.087909     -1.991236 
 50            330          -3.695648     -7.286656     -2.119776 
 60            330          -3.926109     -8.048729     -2.505237 
 70            330          -4.263195     -9.109458     -3.032419 
 80            330          -4.657193     -9.814182     -3.501055 
 90            330          -5.032345     -9.373399     -3.671327 
 100           330          -5.28557      -7.945049     -3.404505 
 110           330          -5.300834     -6.33461      -2.776697 
 120           330          -4.99506      -5.02017      -1.997259 
 130           330          -4.375004     -4.156572     -1.254077 
 140           330          -3.545069     -3.779458     -.6503445 
 150           330          -2.6542       -3.876302     -.2120672 
 160           330          -1.838735     -4.369804      8.790267E-02 
 170           330          -1.19395      -5.051239      .3026042 
 180           330          -.7768722     -5.54814       .4725323 
 0             340          -3.551075     -12.32986     -3.010784 
 10            340          -3.598544     -12.58153     -3.08165 
 20            340          -3.836623     -11.55126     -3.157515 
 30            340          -4.260894     -10.51044     -3.336599 
 40            340          -4.870948     -10.07258     -3.725202 
 50            340          -5.667118     -10.33519     -4.391684 
 60            340          -6.642312     -11.22577     -5.345187 
 70            340          -7.758241     -12.49034     -6.499011 
 80            340          -8.897004     -13.41456     -7.582769 
 90            340          -9.761526     -13.00608     -8.077268 
 100           340          -9.866579     -11.42488     -7.565872 
 110           340          -8.942461     -9.653599     -6.273153 
 120           340          -7.312929     -8.224261     -4.734396 
 130           340          -5.490785     -7.286784     -3.286261 
 140           340          -3.791913     -6.872939     -2.054413 
 150           340          -2.355688     -6.973573     -1.067427 
 160           340          -1.240987     -7.517769     -.3219018 
 170           340          -.4743521     -8.286036      .1908406 
 180           340          -6.775745E-02 -8.846542      .4725337 
 0             350          -3.143758     -18.21756     -3.010785 
 10            350          -3.33902      -18.44054     -3.20688 
 20            350          -3.807172     -17.30308     -3.617202 
 30            350          -4.543485     -16.20818     -4.257109 
 40            350          -5.555536     -15.7721      -5.16084 
 50            350          -6.86779      -16.07468     -6.375452 
 60            350          -8.528008     -17.04252     -7.955959 
 70            350          -10.59709     -18.43092     -9.93503 
 80            350          -13.02319     -19.49529     -12.14069 
 90            350          -14.94514     -19.11011     -13.53604 
 100           350          -14.16681     -17.43119     -12.48892 
 110           350          -11.24608     -15.56079     -9.87796 
 120           350          -8.246028     -14.06131     -7.235052 
 130           350          -5.71148      -13.07787     -4.9802 
 140           350          -3.656067     -12.63944     -3.139216 
 150           350          -2.04066      -12.73949     -1.6858 
 160           350          -.8414548     -13.31242     -.6022905 
 170           350          -4.889541E-02 -14.13349      .1174476 
 180           350           .3395569     -14.73424      .47253 
 0             360          -3.010785     -133.4125     -3.010785 
 10            360          -3.251146     -133.625      -3.251146 
 20            360          -3.785851     -132.4515     -3.785851 
 30            360          -4.61345      -131.3395     -4.61345 
 40            360          -5.747731     -130.9044     -5.747731 
 50            360          -7.229572     -131.2208     -7.229572 
 60            360          -9.142939     -132.2145     -9.142939 
 70            360          -11.64455     -133.6441     -11.64455 
 80            360          -14.88989     -134.7573     -14.88989 
 90            360          -17.74411     -134.3803     -17.74411 
 100           360          -15.85321     -132.6675     -15.85321 
 110           360          -11.78172     -130.7635     -11.78172 
 120           360          -8.365211     -129.2405     -8.365211 
 130           360          -5.678486     -128.2416     -5.678486 
 140           360          -3.559057     -127.7942     -3.559057 
 150           360          -1.914238     -127.8939     -1.914238 
 160           360          -.7023397     -128.4759     -.7023397 
 170           360           9.182172E-02 -129.3148      9.182172E-02 
 180           360           .4725285     -129.9292      .4725285 
