                   ****************************************
                     MINI-NUMERICAL ELECTROMAGNETICS CODE
                                   MININEC
                   ****************************************

FREQUENCY (MHZ): 28.5
    WAVE LENGTH =  10.5193  METERS

ENVIRONMENT (+1 FOR FREE SPACE, -1 FOR GROUND PLANE): +1

NO. OF WIRES: 22

WIRE NO. 1
            COORDINATES                                 END         NO. OF
   X             Y             Z          RADIUS     CONNECTION     SEGMENTS
-2.52984       0             0                          0
-2.50444       0             0             .000512      0              1

WIRE NO. 2
            COORDINATES                                 END         NO. OF
   X             Y             Z          RADIUS     CONNECTION     SEGMENTS
-2.50444       0             0                          1
-2.45364       0             0             .000512      0              1

WIRE NO. 3
            COORDINATES                                 END         NO. OF
   X             Y             Z          RADIUS     CONNECTION     SEGMENTS
-2.45364       0             0                          2
-2.35204       0             0             .000512      0              1

WIRE NO. 4
            COORDINATES                                 END         NO. OF
   X             Y             Z          RADIUS     CONNECTION     SEGMENTS
-2.35204       0             0                          3
-2.14884       0             0             .000512      0              1

WIRE NO. 5
            COORDINATES                                 END         NO. OF
   X             Y             Z          RADIUS     CONNECTION     SEGMENTS
-2.14884       0             0                          4
 0             0             0             .000512      0              6

WIRE NO. 6
            COORDINATES                                 END         NO. OF
   X             Y             Z          RADIUS     CONNECTION     SEGMENTS
-2.52984       0             0                         -1
-2.52984       0             .0254         .000512      0              1

WIRE NO. 7
            COORDINATES                                 END         NO. OF
   X             Y             Z          RADIUS     CONNECTION     SEGMENTS
-2.52984       0             .0254                      6
-2.50444       0             .0254         .000512      0              1

WIRE NO. 8
            COORDINATES                                 END         NO. OF
   X             Y             Z          RADIUS     CONNECTION     SEGMENTS
-2.50444       0             .0254                      7
-2.45364       0             .0254         .000512      0              1

WIRE NO. 9
            COORDINATES                                 END         NO. OF
   X             Y             Z          RADIUS     CONNECTION     SEGMENTS
-2.45364       0             .0254                      8
-2.35204       0             .0254         .000512      0              1

WIRE NO. 10
            COORDINATES                                 END         NO. OF
   X             Y             Z          RADIUS     CONNECTION     SEGMENTS
-2.35204       0             .0254                      9
-2.14884       0             .0254         .000512      0              1

WIRE NO. 11
            COORDINATES                                 END         NO. OF
   X             Y             Z          RADIUS     CONNECTION     SEGMENTS
-2.14884       0             .0254                     10
 0             0             .0254         .000512      0              6

WIRE NO. 12
            COORDINATES                                 END         NO. OF
   X             Y             Z          RADIUS     CONNECTION     SEGMENTS
 2.52984       0             0                          0
 2.50444       0             0             .000512      0              1

WIRE NO. 13
            COORDINATES                                 END         NO. OF
   X             Y             Z          RADIUS     CONNECTION     SEGMENTS
 2.50444       0             0                         12
 2.45364       0             0             .000512      0              1

WIRE NO. 14
            COORDINATES                                 END         NO. OF
   X             Y             Z          RADIUS     CONNECTION     SEGMENTS
 2.45364       0             0                         13
 2.35204       0             0             .000512      0              1

WIRE NO. 15
            COORDINATES                                 END         NO. OF
   X             Y             Z          RADIUS     CONNECTION     SEGMENTS
 2.35204       0             0                         14
 2.14884       0             0             .000512      0              1

WIRE NO. 16
            COORDINATES                                 END         NO. OF
   X             Y             Z          RADIUS     CONNECTION     SEGMENTS
 2.14884       0             0                         15
 0             0             0             .000512     -5              6

WIRE NO. 17
            COORDINATES                                 END         NO. OF
   X             Y             Z          RADIUS     CONNECTION     SEGMENTS
 2.52984       0             .0254                      0
 2.52984       0             0             .000512     12              1

WIRE NO. 18
            COORDINATES                                 END         NO. OF
   X             Y             Z          RADIUS     CONNECTION     SEGMENTS
 2.52984       0             .0254                    -17
 2.50444       0             .0254         .000512      0              1

WIRE NO. 19
            COORDINATES                                 END         NO. OF
   X             Y             Z          RADIUS     CONNECTION     SEGMENTS
 2.50444       0             .0254                     18
 2.45364       0             .0254         .000512      0              1

WIRE NO. 20
            COORDINATES                                 END         NO. OF
   X             Y             Z          RADIUS     CONNECTION     SEGMENTS
 2.45364       0             .0254                     19
 2.35204       0             .0254         .000512      0              1

WIRE NO. 21
            COORDINATES                                 END         NO. OF
   X             Y             Z          RADIUS     CONNECTION     SEGMENTS
 2.35204       0             .0254                     20
 2.14884       0             .0254         .000512      0              1

WIRE NO. 22
            COORDINATES                                 END         NO. OF
   X             Y             Z          RADIUS     CONNECTION     SEGMENTS
 2.14884       0             .0254                     21
 0             0             .0254         .000512     -11              6

                  **** ANTENNA GEOMETRY ****

WIRE NO.  1  COORDINATES                                CONNECTION PULSE
X             Y             Z             RADIUS        END1 END2  NO.
-             -             -                 -          -    -    0   

WIRE NO.  2  COORDINATES                                CONNECTION PULSE
X             Y             Z             RADIUS        END1 END2  NO.
-2.50444       0             0             .000512       1    0   1

WIRE NO.  3  COORDINATES                                CONNECTION PULSE
X             Y             Z             RADIUS        END1 END2  NO.
-2.45364       0             0             .000512       2    0   2

WIRE NO.  4  COORDINATES                                CONNECTION PULSE
X             Y             Z             RADIUS        END1 END2  NO.
-2.35204       0             0             .000512       3    0   3

WIRE NO.  5  COORDINATES                                CONNECTION PULSE
X             Y             Z             RADIUS        END1 END2  NO.
-2.14884       0             0             .000512       4    5   4
-1.7907        0             0             .000512       5    5   5
-1.43256       0             0             .000512       5    5   6
-1.07442       0             0             .000512       5    5   7
-.71628        0             0             .000512       5    5   8
-.35814        0             0             .000512       5    0   9

WIRE NO.  6  COORDINATES                                CONNECTION PULSE
X             Y             Z             RADIUS        END1 END2  NO.
-2.52984       0             0             .000512      -1    0  10

WIRE NO.  7  COORDINATES                                CONNECTION PULSE
X             Y             Z             RADIUS        END1 END2  NO.
-2.52984       0             .0254         .000512       6    0  11

WIRE NO.  8  COORDINATES                                CONNECTION PULSE
X             Y             Z             RADIUS        END1 END2  NO.
-2.50444       0             .0254         .000512       7    0  12

WIRE NO.  9  COORDINATES                                CONNECTION PULSE
X             Y             Z             RADIUS        END1 END2  NO.
-2.45364       0             .0254         .000512       8    0  13

WIRE NO. 10  COORDINATES                                CONNECTION PULSE
X             Y             Z             RADIUS        END1 END2  NO.
-2.35204       0             .0254         .000512       9    0  14

WIRE NO. 11  COORDINATES                                CONNECTION PULSE
X             Y             Z             RADIUS        END1 END2  NO.
-2.14884       0             .0254         .000512      10   11  15
-1.7907        0             .0254         .000512      11   11  16
-1.43256       0             .0254         .000512      11   11  17
-1.07442       0             .0254         .000512      11   11  18
-.71628        0             .0254         .000512      11   11  19
-.35814        0             .0254         .000512      11    0  20

WIRE NO. 12  COORDINATES                                CONNECTION PULSE
X             Y             Z             RADIUS        END1 END2  NO.
-             -             -                 -          -    -    0   

WIRE NO. 13  COORDINATES                                CONNECTION PULSE
X             Y             Z             RADIUS        END1 END2  NO.
 2.50444       0             0             .000512      12    0  21

WIRE NO. 14  COORDINATES                                CONNECTION PULSE
X             Y             Z             RADIUS        END1 END2  NO.
 2.45364       0             0             .000512      13    0  22

WIRE NO. 15  COORDINATES                                CONNECTION PULSE
X             Y             Z             RADIUS        END1 END2  NO.
 2.35204       0             0             .000512      14    0  23

WIRE NO. 16  COORDINATES                                CONNECTION PULSE
X             Y             Z             RADIUS        END1 END2  NO.
 2.14884       0             0             .000512      15   16  24
 1.7907        0             0             .000512      16   16  25
 1.43256       0             0             .000512      16   16  26
 1.07442       0             0             .000512      16   16  27
 .71628        0             0             .000512      16   16  28
 .35814        0             0             .000512      16   16  29
 0             0             0             .000512      16   -5  30

WIRE NO. 17  COORDINATES                                CONNECTION PULSE
X             Y             Z             RADIUS        END1 END2  NO.
 2.52984       0             0             .000512       0   12  31

WIRE NO. 18  COORDINATES                                CONNECTION PULSE
X             Y             Z             RADIUS        END1 END2  NO.
 2.52984       0             .0254         .000512     -17    0  32

WIRE NO. 19  COORDINATES                                CONNECTION PULSE
X             Y             Z             RADIUS        END1 END2  NO.
 2.50444       0             .0254         .000512      18    0  33

WIRE NO. 20  COORDINATES                                CONNECTION PULSE
X             Y             Z             RADIUS        END1 END2  NO.
 2.45364       0             .0254         .000512      19    0  34

WIRE NO. 21  COORDINATES                                CONNECTION PULSE
X             Y             Z             RADIUS        END1 END2  NO.
 2.35204       0             .0254         .000512      20    0  35

WIRE NO. 22  COORDINATES                                CONNECTION PULSE
X             Y             Z             RADIUS        END1 END2  NO.
 2.14884       0             .0254         .000512      21   22  36
 1.7907        0             .0254         .000512      22   22  37
 1.43256       0             .0254         .000512      22   22  38
 1.07442       0             .0254         .000512      22   22  39
 .71628        0             .0254         .000512      22   22  40
 .35814        0             .0254         .000512      22   22  41
 0             0             .0254         .000512      22  -11  42

NO. OF SOURCES :  1
PULSE NO., VOLTAGE MAGNITUDE, PHASE (DEGREES): 31 , 1 , 0
NUMBER OF LOADS 0

********************    SOURCE DATA     ********************
PULSE 31      VOLTAGE = ( 1 , 0 J)
              CURRENT = ( 9.614733E-07 , 1.289252E-02 J)
              IMPEDANCE = (  .005778  , -77.56433 J)
              POWER =  4.812366E-07  WATTS

********************    CURRENT DATA    ********************

WIRE NO.  1 :
PULSE         REAL          IMAGINARY     MAGNITUDE     PHASE
 NO.          (AMPS)        (AMPS)        (AMPS)        (DEGREES)
J              1.391218E-08 1.303358E-02  1.303358E-02  89.99994 
J              -8.554078E-07 1.303251E-02  1.303251E-02  90.00377 
WIRE NO.  2 :
PULSE         REAL          IMAGINARY     MAGNITUDE     PHASE
 NO.          (AMPS)        (AMPS)        (AMPS)        (DEGREES)
J              -8.554078E-07 1.303251E-02  1.303251E-02  90.00377 
J              -2.394355E-06 1.302126E-02  1.302126E-02  90.01054 
WIRE NO.  3 :
PULSE         REAL          IMAGINARY     MAGNITUDE     PHASE
 NO.          (AMPS)        (AMPS)        (AMPS)        (DEGREES)
J              -2.394355E-06 1.302126E-02  1.302126E-02  90.01054 
J              -5.174700E-06 1.296256E-02  1.296256E-02  90.02288 
WIRE NO.  4 :
PULSE         REAL          IMAGINARY     MAGNITUDE     PHASE
 NO.          (AMPS)        (AMPS)        (AMPS)        (DEGREES)
J              -5.174700E-06 1.296256E-02  1.296256E-02  90.02288 
J              -1.028762E-05 1.270272E-02  1.270273E-02  90.04641 
WIRE NO.  5 :
PULSE         REAL          IMAGINARY     MAGNITUDE     PHASE
 NO.          (AMPS)        (AMPS)        (AMPS)        (DEGREES)
J              -1.028762E-05 1.270272E-02  1.270273E-02  90.04641 
 5             -1.856794E-05 1.181695E-02  1.181696E-02  90.09003 
 6             -2.573874E-05 1.040770E-02  1.040773E-02  90.1417  
 7             -3.163134E-05 8.537481E-03  8.537540E-03  90.21229 
 8             -3.604315E-05 6.289098E-03  6.289201E-03  90.32837 
 9             -3.880749E-05 3.762092E-03  3.762292E-03  90.59102 
J              -3.981552E-05 1.068334E-03  1.069076E-03  92.13441 
WIRE NO.  6 :
PULSE         REAL          IMAGINARY     MAGNITUDE     PHASE
 NO.          (AMPS)        (AMPS)        (AMPS)        (DEGREES)
J              -1.191218E-08 -1.303358E-02  1.303358E-02 -90.00006 
J              -9.307771E-07 -1.303325E-02  1.303326E-02 -90.0041  
WIRE NO.  7 :
PULSE         REAL          IMAGINARY     MAGNITUDE     PHASE
 NO.          (AMPS)        (AMPS)        (AMPS)        (DEGREES)
J              -9.307771E-07 -1.303325E-02  1.303326E-02 -90.0041  
J              -1.796601E-06 -1.303158E-02  1.303158E-02 -90.0079  
WIRE NO.  8 :
PULSE         REAL          IMAGINARY     MAGNITUDE     PHASE
 NO.          (AMPS)        (AMPS)        (AMPS)        (DEGREES)
J              -1.796601E-06 -1.303158E-02  1.303158E-02 -90.0079  
J              -3.328300E-06 -1.301926E-02  1.301926E-02 -90.01465 
WIRE NO.  9 :
PULSE         REAL          IMAGINARY     MAGNITUDE     PHASE
 NO.          (AMPS)        (AMPS)        (AMPS)        (DEGREES)
J              -3.328300E-06 -1.301926E-02  1.301926E-02 -90.01465 
J              -6.091627E-06 -1.295866E-02  1.295866E-02 -90.02694 
WIRE NO. 10 :
PULSE         REAL          IMAGINARY     MAGNITUDE     PHASE
 NO.          (AMPS)        (AMPS)        (AMPS)        (DEGREES)
J              -6.091627E-06 -1.295866E-02  1.295866E-02 -90.02694 
J              -1.116153E-05 -1.269543E-02  1.269543E-02 -90.05038 
WIRE NO. 11 :
PULSE         REAL          IMAGINARY     MAGNITUDE     PHASE
 NO.          (AMPS)        (AMPS)        (AMPS)        (DEGREES)
J              -1.116153E-05 -1.269543E-02  1.269543E-02 -90.05038 
 16            -1.935556E-05 -1.180445E-02  1.180447E-02 -90.09395 
 17            -2.640410E-05 -1.039112E-02  1.039115E-02 -90.1456  
 18            -3.214391E-05 -8.518008E-03  8.518071E-03 -90.21622 
 19            -3.637920E-05 -6.268023E-03  6.268130E-03 -90.33255 
 20            -3.895119E-05 -3.740763E-03  3.740967E-03 -90.59659 
J              -3.975962E-05 -1.048107E-03  1.048863E-03 -92.17251 
WIRE NO. 12 :
PULSE         REAL          IMAGINARY     MAGNITUDE     PHASE
 NO.          (AMPS)        (AMPS)        (AMPS)        (DEGREES)
J              9.614733E-07 1.289252E-02  1.289252E-02  89.99573 
J              1.830742E-06 1.285088E-02  1.285088E-02  89.99184 
WIRE NO. 13 :
PULSE         REAL          IMAGINARY     MAGNITUDE     PHASE
 NO.          (AMPS)        (AMPS)        (AMPS)        (DEGREES)
J              1.830742E-06 1.285088E-02  1.285088E-02  89.99184 
J              3.368324E-06 1.277195E-02  1.277195E-02  89.98489 
WIRE NO. 14 :
PULSE         REAL          IMAGINARY     MAGNITUDE     PHASE
 NO.          (AMPS)        (AMPS)        (AMPS)        (DEGREES)
J              3.368324E-06 1.277195E-02  1.277195E-02  89.98489 
J              6.141544E-06 1.258186E-02  1.258187E-02  89.97204 
WIRE NO. 15 :
PULSE         REAL          IMAGINARY     MAGNITUDE     PHASE
 NO.          (AMPS)        (AMPS)        (AMPS)        (DEGREES)
J              6.141544E-06 1.258186E-02  1.258187E-02  89.97204 
J              1.122744E-05 1.206642E-02  1.206642E-02  89.94669 
WIRE NO. 16 :
PULSE         REAL          IMAGINARY     MAGNITUDE     PHASE
 NO.          (AMPS)        (AMPS)        (AMPS)        (DEGREES)
J              1.122744E-05 1.206642E-02  1.206642E-02  89.94669 
 25            1.944435E-05 1.076622E-02  1.076624E-02  89.89653 
 26            2.650366E-05 8.989866E-03  8.989905E-03  89.83109 
 27            3.224384E-05 6.815845E-03  6.815921E-03  89.72896 
 28            3.647088E-05 4.340345E-03  4.340498E-03  89.51858 
 29            3.902808E-05 1.672928E-03  1.673384E-03  88.66361 
J              3.981752E-05 -1.068332E-03  1.069076E-03 -87.86559 
WIRE NO. 17 :
PULSE         REAL          IMAGINARY     MAGNITUDE     PHASE
 NO.          (AMPS)        (AMPS)        (AMPS)        (DEGREES)
J              3.902070E-08 1.285820E-02  1.285820E-02  89.99983 
J              9.614733E-07 1.289252E-02  1.289252E-02  89.99573 
WIRE NO. 18 :
PULSE         REAL          IMAGINARY     MAGNITUDE     PHASE
 NO.          (AMPS)        (AMPS)        (AMPS)        (DEGREES)
J              -3.702070E-08 -1.285820E-02  1.285820E-02 -90.00017 
J              8.355336E-07 -1.282788E-02  1.282789E-02 -89.99627 
WIRE NO. 19 :
PULSE         REAL          IMAGINARY     MAGNITUDE     PHASE
 NO.          (AMPS)        (AMPS)        (AMPS)        (DEGREES)
J              8.355336E-07 -1.282788E-02  1.282789E-02 -89.99627 
J              2.379979E-06 -1.275330E-02  1.275330E-02 -89.98931 
WIRE NO. 20 :
PULSE         REAL          IMAGINARY     MAGNITUDE     PHASE
 NO.          (AMPS)        (AMPS)        (AMPS)        (DEGREES)
J              2.379979E-06 -1.275330E-02  1.275330E-02 -89.98931 
J              5.169438E-06 -1.256699E-02  1.256699E-02 -89.97644 
WIRE NO. 21 :
PULSE         REAL          IMAGINARY     MAGNITUDE     PHASE
 NO.          (AMPS)        (AMPS)        (AMPS)        (DEGREES)
J              5.169438E-06 -1.256699E-02  1.256699E-02 -89.97644 
J              1.029570E-05 -1.205653E-02  1.205654E-02 -89.95108 
WIRE NO. 22 :
PULSE         REAL          IMAGINARY     MAGNITUDE     PHASE
 NO.          (AMPS)        (AMPS)        (AMPS)        (DEGREES)
J              1.029570E-05 -1.205653E-02  1.205654E-02 -89.95108 
 37            1.858383E-05 -1.076363E-02  1.076365E-02 -89.90108 
 38            2.575217E-05 -8.993701E-03  8.993739E-03 -89.83595 
 39            3.163426E-05 -6.825314E-03  6.825389E-03 -89.73445 
 40            3.602971E-05 -4.354525E-03  4.354676E-03 -89.52595 
 41            3.877427E-05 -1.690739E-03  1.691185E-03 -88.68628 
J              3.976162E-05 1.048109E-03  1.048863E-03  87.82749 

********************     FAR FIELD      ********************

ZENITH ANGLE : INITIAL,INCREMENT,NUMBER:  0 , 10 , 19
AZIMUTH ANGLE: INITIAL,INCREMENT,NUMBER:  0 , 10 , 37

********************    PATTERN DATA    ********************
ZENITH        AZIMUTH       VERTICAL      HORIZONTAL    TOTAL
 ANGLE         ANGLE        PATTERN (DB)  PATTERN (DB)  PATTERN (DB)
 0             0            -2.891413     -999          -2.891413
 10            0            -2.954082     -999          -2.954082
 20            0            -3.338207     -999          -3.338207
 30            0            -4.068397     -999          -4.068397
 40            0            -5.184533     -999          -5.184533
 50            0            -6.759685     -999          -6.759685
 60            0            -8.937078     -999          -8.937078
 70            0            -11.9903      -999          -11.9903 
 80            0            -16.11387     -999          -16.11387
 90            0            -17.60508     -999          -17.60508
 100           0            -13.1829      -999          -13.1829 
 110           0            -9.098996     -999          -9.098996
 120           0            -6.068456     -999          -6.068456
 130           0            -3.771156     -999          -3.771156
 140           0            -2.021791     -999          -2.021791
 150           0            -.735116      -999          -.735116 
 160           0             .124204      -999           .124204 
 170           0             .568335      -999           .568335 
 180           0             .600039      -999           .600039 
 0             10           -3.024383     -18.09801     -2.891413
 10            10           -3.111945     -16.41855     -2.913713
 20            10           -3.502107     -14.67208     -3.182435
 30            10           -4.219003     -13.53272     -3.738007
 40            10           -5.298017     -13.08763     -4.629705
 50            10           -6.7966       -13.27905     -5.916024
 60            10           -8.807859     -14.02006     -7.664593
 70            10           -11.43061     -15.17706     -9.901487
 80            10           -14.30369     -16.4572      -12.23801
 90            10           -14.80604     -17.26438     -12.85324
 100           10           -11.8225      -17.02674     -10.67739
 110           10           -8.504692     -15.97516     -7.789402
 120           10           -5.795584     -14.79338     -5.280368
 130           10           -3.660171     -13.91275     -3.268609
 140           10           -2.006085     -13.49874     -1.708538
 150           10           -.781215      -13.57815     -.55892  
 160           10            .036281      -14.04344      .202799 
 170           10            .45245       -14.55918      .587303 
 180           10            .467069      -14.60656      .600039 
 0             20           -3.431696     -12.21038     -2.891413
 10            20           -3.583236     -10.61978     -2.799195
 20            20           -3.951487     -8.944049     -2.756389
 30            20           -4.552494     -7.827831     -2.878142
 40            20           -5.397269     -7.372377     -3.263196
 50            20           -6.48047      -7.530505     -3.96353 
 60            20           -7.748855     -8.219161     -4.967345
 70            20           -9.017233     -9.303979     -6.14794 
 80            20           -9.835746     -10.49604     -7.143055
 90            20           -9.622383     -11.23675     -7.344683
 100           20           -8.343901     -11.01449     -6.466774
 110           20           -6.568328     -10.03895     -4.955499
 120           20           -4.777129     -8.933243     -3.365609
 130           20           -3.185859     -8.106445     -1.973336
 140           20           -1.874418     -7.720172     -.869781 
 150           20           -.876646      -7.797332     -.073254 
 160           20           -.212647      -8.227286      .424273 
 170           20            .102842      -8.690321      .641435 
 180           20            .059755      -8.718927      .600039 
 0             30           -4.1408       -8.912013     -2.891413
 10            30           -4.357035     -7.465299     -2.628532
 20            30           -4.536982     -5.910028     -2.159168
 30            30           -4.697457     -4.838357     -1.757036
 40            30           -4.861929     -4.371097     -1.599283
 50            30           -5.035511     -4.477637     -1.737322
 60            30           -5.190333     -5.081142     -2.125094
 70            30           -5.26595      -6.046785     -2.628542
 80            30           -5.186528     -7.095111     -3.026508
 90            30           -4.89321      -7.729935     -3.073665
 100           30           -4.376538     -7.53027      -2.662912
 110           30           -3.684993     -6.673663     -1.916858
 120           30           -2.904384     -5.689401     -1.067071
 130           30           -2.128606     -4.947832     -.303063 
 140           30           -1.440897     -4.60262       .270125 
 150           30           -.907651      -4.670967      .616473 
 160           30           -.578378      -5.040181      .750453 
 170           30           -.486592      -5.419621      .722903 
 180           30           -.649348      -5.42056       .600039 
 0             40           -5.206333     -6.730063     -2.891413
 10            40           -5.398883     -5.475569     -2.426757
 20            40           -4.973736     -4.092716     -1.500624
 30            40           -4.201275     -3.095089     -.602757 
 40            40           -3.380559     -2.62218       .025463 
 50            40           -2.667561     -2.663978      .344531 
 60            40           -2.103121     -3.152052      .414305 
 70            40           -1.673187     -3.953259      .345021 
 80            40           -1.346006     -4.807508      .269653 
 90            40           -1.090897     -5.304055      .30487  
 100           40           -.887265      -5.12949       .500532 
 110           40           -.727961      -4.422556      .816616 
 120           40           -.618612      -3.596214      1.153227
 130           40           -.574008      -2.964539      1.403472
 140           40           -.612641      -2.666824      1.490904
 150           40           -.750209      -2.713929      1.388288
 160           40           -.99234       -2.996629      1.130427
 170           40           -1.326583     -3.269141      .820155 
 180           40           -1.714881     -3.238611      .600039 
 0             50           -6.730063     -5.206333     -2.891413
 10            50           -6.616795     -4.182396     -2.220911
 20            50           -4.951133     -3.023492     -.870929 
 30            50           -3.040673     -2.138446      .444128 
 40            50           -1.448768     -1.675373      1.449707
 50            50           -.240555      -1.645287      2.123928
 60            50            .637507      -1.990514      2.52962 
 70            50            1.249167     -2.585364      2.752334
 80            50            1.645683     -3.204301      2.875511
 90            50            1.862163     -3.539534      2.962301
 100           50            1.917852     -3.385801      3.040123
 110           50            1.817526     -2.841398      3.095259
 120           50            1.553829     -2.194914      3.082271
 130           50            1.111065     -1.687764      2.943618
 140           50            .471833      -1.435992      2.632151
 150           50           -.369847      -1.445072      2.136031
 160           50           -1.380443     -1.619705      1.511874
 170           50           -2.431819     -1.77424       .919704 
 180           50           -3.238611     -1.714881      .600039 
 0             60           -8.912013     -4.1408       -2.891413
 10            60           -7.806186     -3.372188     -2.036011
 20            60           -4.421034     -2.481513     -.33359  
 30            60           -1.65568      -1.75367       1.305901
 40            60            .342505      -1.32499       2.598601
 50            60            1.771907     -1.222188      3.538228
 60            60            2.781255     -1.401403      4.185426
 70            60            3.465854     -1.755726      4.606952
 80            60            3.885293     -2.113117      4.85884 
 90            60            4.074371     -2.275197      4.97964 
 100           60            4.048733     -2.129403      4.98678 
 110           60            3.80758      -1.736622      4.876232
 120           60            3.33467      -1.26946       4.626434
 130           60            2.598268     -.886756       4.206633
 140           60            1.550906     -.671908       3.590484
 150           60            .133192      -.627581       2.779743
 160           60           -1.696985     -.685171       1.848622
 170           60           -3.813804     -.727888       1.007965
 180           60           -5.42056      -.649348       .600039 
 0             70           -12.21038     -3.431696     -2.891413
 10            70           -8.633279     -2.926251     -1.892599
 20            70           -3.65211      -2.328656      .070136 
 30            70           -.447504      -1.79808       1.939798
 40            70            1.720794     -1.432914      3.434428
 50            70            3.240783     -1.263359      4.558494
 60            70            4.305979     -1.26332       5.369169
 70            70            5.021815     -1.36099       5.920851
 80            70            5.448132     -1.453977      6.254666
 90            70            5.617164     -1.443464      6.397235
 100           70            5.541374     -1.282915      6.361196
 110           70            5.216256     -1.002641      6.146414
 120           70            4.619777     -.682987       5.74225 
 130           70            3.708251     -.404106       5.131957
 140           70            2.406671     -.212248       4.302001
 150           70            .589269      -.110373       3.263822
 160           70           -1.95126      -.064442       2.10412 
 170           70           -5.44813      -.021791       1.072845
 180           70           -8.718927      .059755       .600039 
 0             80           -18.09801     -3.024383     -2.891413
 10            80           -8.81116      -2.770768     -1.805619
 20            80           -2.949463     -2.455137      .315029 
 30            80            .394947      -2.135002      2.321951
 40            80            2.607988     -1.854421      3.936659
 50            80            4.152256     -1.632953      5.169466
 60            80            5.233101     -1.465074      6.07488 
 70            80            5.956097     -1.326487      6.700447
 80            80            6.378643     -1.185238      7.079877
 90            80            6.530263     -1.015318      7.234231
 100           80            6.421014     -.80767        7.173898
 110           80            6.044069     -.572738       6.900296
 120           80            5.37406      -.333477       6.407604
 130           80            4.360233     -.114          5.685791
 140           80            2.909814      .06957        4.728155
 150           80            .847495       .212768       3.552017
 160           80           -2.19698       .320957       2.252268
 170           80           -7.159535      .403602       1.104946
 180           80           -14.60656      .467069       .600039 
 0             90           -999          -2.891413     -2.891413
 10            90           -8.37407      -2.859123     -1.784072
 20            90           -2.486419     -2.763897      .387358 
 30            90            .811981      -2.610497      2.439801
 40            90            2.993971     -2.406324      4.094423
 50            90            4.517744     -2.160737      5.363   
 60            90            5.583318     -1.884269      6.299046
 70            90            6.292455     -1.58788       6.947943
 80            90            6.69979      -1.282321      7.341162
 90            90            6.832768     -.977661       7.498117
 100           90            6.69979      -.682976       7.428512
 110           90            6.292455     -.406195       7.134151
 120           90            5.583318     -.154051       6.610561
 130           90            4.517744      .067881       5.849726
 140           90            2.993971      .255118       4.847264
 150           90            .811981       .404159       3.623155
 160           90           -2.486419      .512399       2.277142
 170           90           -8.37407       .578043       1.098393
 180           90           -999           .600039       .600039 
 0             100          -18.09801     -3.024383     -2.891413
 10            100          -7.601585     -3.167005     -1.830982
 20            100          -2.318255     -3.180311      .282371 
 30            100           .79898       -3.081013      2.288895
 40            100           2.887765     -2.903242      3.903765
 50            100           4.350013     -2.675057      5.13595 
 60            100           5.369566     -2.406431      6.039822
 70            100           6.04233      -2.093025      6.66298 
 80            100           6.420501     -1.729706      7.039177
 90            100           6.530269     -1.323659      7.189466
 100           100           6.379074     -.898623       7.124193
 110           100           5.957475     -.488839       6.844705
 120           100           5.236802     -.12838        6.345138
 130           100           4.161185      .157681       5.615592
 140           100           2.628489      .357586       4.650107
 150           100           .443194       .47319        3.468518
 160           100          -2.818017      .51735        2.172588
 170           100          -8.252753      .509064       1.051324
 180           100          -14.60656      .467069       .600039 
 0             110          -12.21038     -3.431696     -2.891413
 10            110          -6.736234     -3.693496     -1.943369
 20            110          -2.425821     -3.67764       .003517 
 30            110           .378581      -3.489489      1.871962
 40            110           2.305383     -3.271547      3.366917
 50            110           3.659423     -3.104492      4.489691
 60            110           4.597641     -2.978894      5.29699 
 70            110           5.207524     -2.815742      5.843269
 80            110           5.538822     -2.519884      6.169758
 90            110           5.617177     -2.050139      6.303143
 100           110           5.449852     -1.454048      6.256083
 110           110           5.02722      -.835113       6.028438
 120           110           4.320964     -.295133       5.609653
 130           110           3.278233      .098738       4.983476
 140           110           1.809022      .319767       4.13822 
 150           110          -.237995       .377389       3.090888
 160           110          -3.102213      .311663       1.942173
 170           110          -6.865487      .184265       .966126 
 180           110          -8.718927      .059755       .600039 
 0             120          -8.912013     -4.1408       -2.891413
 10            120          -5.896926     -4.465407     -2.112149
 20            120          -2.736214     -4.29747      -.436759 
 30            120          -.39846       -3.9167        1.199652
 40            120           1.274373     -3.621612      2.492902
 50            120           2.457932     -3.544596      3.430653
 60            120           3.268685     -3.651381      4.072181
 70            120           3.780962     -3.770473      4.484054
 80            120           4.041003     -3.657297      4.722456
 90            120           4.074391     -3.160614      4.82627 
 100           120           3.889503     -2.362035      4.813388
 110           120           3.478731     -1.486875      4.68033 
 120           120           2.818401     -.733257       4.406252
 130           120           1.868149     -.211772       3.961831
 140           120           .572358       .039555       3.324422
 150           120          -1.123309      .036165       2.505308
 160           120          -3.178647     -.157619       1.599721
 170           120          -5.081432     -.430304       .849417 
 180           120          -5.42056      -.649348       .600039 
 0             130          -6.730063     -5.206333     -2.891413
 10            130          -5.129365     -5.545253     -2.322032
 20            130          -3.13207      -5.149505     -1.014381
 30            130          -1.433508     -4.546075      .293583 
 40            130          -.145871      -4.178959      1.300137
 50            130           .773219      -4.201297      1.972666
 60            130           1.386376     -4.560408      2.37034 
 70            130           1.74765      -5.019843      2.577296
 80            130           1.897471     -5.168214      2.676711
 90            130           1.862196     -4.675351      2.732712
 100           130           1.654653     -3.657977      2.774882
 110           130           1.275645     -2.513169      2.792237
 120           130           .717529      -1.545446      2.7421  
 130           130          -.027596      -.89568        2.570315
 140           130          -.949381      -.605609       2.236206
 150           130          -1.97928      -.657507       1.741999
 160           130          -2.923418     -.973395       1.170434
 170           130          -3.437252     -1.397266      .711734 
 180           130          -3.238611     -1.714881      .600039 
 0             140          -5.206333     -6.730063     -2.891413
 10            140          -4.456472     -7.048812     -2.551724
 20            140          -3.477237     -6.404972     -1.688628
 30            140          -2.553143     -5.605002     -.80604  
 40            140          -1.819884     -5.191708     -.176167 
 50            140          -1.312147     -5.308937      .144172 
 60            140          -1.017327     -5.893529      .20605  
 70            140          -.904925      -6.682696      .113839 
 80            140          -.940337      -7.122391     -.003051 
 90            140          -1.090847     -6.654385     -.026404 
 100           140          -1.326993     -5.420795      .101907 
 110           140          -1.620036     -4.022844      .352957 
 120           140          -1.935914     -2.863302      .635399 
 130           140          -2.228006     -2.096707      .84844  
 140           140          -2.435211     -1.762826      .924281 
 150           140          -2.495138     -1.845219      .852268 
 160           140          -2.37387      -2.262821      .69231  
 170           140          -2.091293     -2.826751      .566828 
 180           140          -1.714881     -3.238611      .600039 
 0             150          -4.1408       -8.912013     -2.891413
 10            150          -3.899634     -9.192739     -2.774959
 20            150          -3.674868     -8.324879     -2.394862
 30            150          -3.519868     -7.377507     -2.023449
 40            150          -3.478475     -6.943429     -1.863888
 50            150          -3.572582     -7.142768     -1.990396
 60            150          -3.799334     -7.906858     -2.374276
 70            150          -4.132383     -8.972616     -2.900148
 80            150          -4.522134     -9.686284     -3.367699
 90            150          -4.893128     -9.252819     -3.537147
 100           150          -5.14283      -7.825493     -3.269936
 110           150          -5.156196     -6.213155     -2.6423  
 120           150          -4.850908     -4.896869     -1.863528
 130           150          -4.233281     -4.032339     -1.121348
 140           150          -3.406819     -3.655037     -.518855 
 150           150          -2.519834     -3.751941     -.082039 
 160           150          -1.707194     -4.245625      .216772 
 170           150          -1.064767     -4.926563      .430441 
 180           150          -.649348      -5.42056       .600039 
 0             160          -3.431696     -12.21038     -2.891413
 10            160          -3.481364     -12.45109     -2.962999
 20            160          -3.721016     -11.41076     -3.03832 
 30            160          -4.145516     -10.36621     -3.215705
 40            160          -4.754755     -9.927467     -3.602317
 50            160          -5.549286     -10.19025     -4.266969
 60            160          -6.52115      -11.08292     -5.218449
 70            160          -7.632787     -12.35236     -6.370431
 80            160          -8.765191     -13.28582     -7.451788
 90            160          -9.622239     -12.88576     -7.944104
 100           160          -9.722118     -11.30539     -7.431701
 110           160          -8.798633     -9.531911     -6.139514
 120           160          -7.173385     -8.100511     -4.601955
 130           160          -5.355507     -7.162079     -3.155226
 140           160          -3.659566     -6.747937     -1.924521
 150           160          -2.225331     -6.848935     -.938569 
 160           160          -1.111896     -7.393627     -.193781 
 170           160          -.346146      -8.161407      .318517 
 180           160           .059755      -8.718927      .600039 
 0             170          -3.024383     -18.09801     -2.891413
 10            170          -3.221496     -18.30937     -3.088954
 20            170          -3.690919     -17.16192     -3.499891
 30            170          -4.428103     -16.0635      -4.139864
 40            170          -5.440381     -15.62643     -5.043042
 50            170          -6.752383     -15.92938     -6.25685 
 60            170          -8.411315     -16.89914     -7.835985
 70            170          -10.47735     -18.29209     -9.812612
 80            170          -12.89677     -19.36652     -12.01386
 90            170          -14.80578     -18.99013     -13.40208
 100           170          -14.02279     -17.31182     -12.35282
 110           170          -11.10866     -15.43887     -9.744753
 120           170          -8.113667     -13.93731     -7.104454
 130           170          -5.581434     -12.95284     -4.850955
 140           170          -3.527319     -12.51402     -3.01086 
 150           170          -1.912562     -12.61461     -1.55797 
 160           170          -.713618      -13.1881      -.474653 
 170           170           .078738      -14.00896      .244956 
 180           170           .467069      -14.60656      .600039 
 0             180          -2.891413     -999          -2.891413
 10            180          -3.133328     -999          -3.133328
 20            180          -3.66929      -999          -3.66929 
 30            180          -4.49783      -999          -4.49783 
 40            180          -5.632806     -999          -5.632806
 50            180          -7.114289     -999          -7.114289
 60            180          -9.02737      -999          -9.02737 
 70            180          -11.52729     -999          -11.52729
 80            180          -14.76675     -999          -14.76675
 90            180          -17.60472     -999          -17.60472
 100           180          -15.71162     -999          -15.71162
 110           180          -11.64841     -999          -11.64841
 120           180          -8.23556      -999          -8.23556 
 130           180          -5.550202     -999          -5.550202
 140           180          -3.431404     -999          -3.431404
 150           180          -1.786665     -999          -1.786665
 160           180          -.574833      -999          -.574833 
 170           180           .2193        -999           .2193   
 180           180           .600039      -999           .600039 
 0             190          -3.024383     -18.09801     -2.891413
 10            190          -3.221496     -18.30937     -3.088954
 20            190          -3.690919     -17.16192     -3.499891
 30            190          -4.428103     -16.0635      -4.139864
 40            190          -5.440381     -15.62643     -5.043042
 50            190          -6.752383     -15.92938     -6.25685 
 60            190          -8.411315     -16.89914     -7.835985
 70            190          -10.47735     -18.29209     -9.812612
 80            190          -12.89677     -19.36652     -12.01386
 90            190          -14.80578     -18.99013     -13.40208
 100           190          -14.02279     -17.31182     -12.35282
 110           190          -11.10866     -15.43887     -9.744753
 120           190          -8.113667     -13.93731     -7.104454
 130           190          -5.581434     -12.95284     -4.850955
 140           190          -3.527319     -12.51402     -3.01086 
 150           190          -1.912562     -12.61461     -1.55797 
 160           190          -.713618      -13.1881      -.474653 
 170           190           .078738      -14.00896      .244956 
 180           190           .467069      -14.60656      .600039 
 0             200          -3.431696     -12.21038     -2.891413
 10            200          -3.481364     -12.45109     -2.962999
 20            200          -3.721016     -11.41076     -3.03832 
 30            200          -4.145516     -10.36621     -3.215705
 40            200          -4.754755     -9.927467     -3.602317
 50            200          -5.549286     -10.19025     -4.266969
 60            200          -6.52115      -11.08292     -5.218449
 70            200          -7.632787     -12.35236     -6.370431
 80            200          -8.765191     -13.28582     -7.451788
 90            200          -9.622239     -12.88576     -7.944104
 100           200          -9.722118     -11.30539     -7.431701
 110           200          -8.798633     -9.531911     -6.139514
 120           200          -7.173385     -8.100511     -4.601955
 130           200          -5.355507     -7.162079     -3.155226
 140           200          -3.659566     -6.747937     -1.924521
 150           200          -2.225331     -6.848935     -.938569 
 160           200          -1.111896     -7.393627     -.193781 
 170           200          -.346146      -8.161407      .318517 
 180           200           .059755      -8.718927      .600039 
 0             210          -4.1408       -8.912013     -2.891413
 10            210          -3.899634     -9.192739     -2.774959
 20            210          -3.674868     -8.324879     -2.394862
 30            210          -3.519868     -7.377507     -2.023449
 40            210          -3.478475     -6.943429     -1.863888
 50            210          -3.572582     -7.142768     -1.990396
 60            210          -3.799334     -7.906858     -2.374276
 70            210          -4.132383     -8.972616     -2.900148
 80            210          -4.522134     -9.686284     -3.367699
 90            210          -4.893128     -9.252819     -3.537147
 100           210          -5.14283      -7.825493     -3.269936
 110           210          -5.156196     -6.213155     -2.6423  
 120           210          -4.850908     -4.896869     -1.863528
 130           210          -4.233281     -4.032339     -1.121348
 140           210          -3.406819     -3.655037     -.518855 
 150           210          -2.519834     -3.751941     -.082039 
 160           210          -1.707194     -4.245625      .216772 
 170           210          -1.064767     -4.926563      .430441 
 180           210          -.649348      -5.42056       .600039 
 0             220          -5.206333     -6.730063     -2.891413
 10            220          -4.456472     -7.048812     -2.551724
 20            220          -3.477237     -6.404972     -1.688628
 30            220          -2.553143     -5.605002     -.80604  
 40            220          -1.819884     -5.191708     -.176167 
 50            220          -1.312147     -5.308937      .144172 
 60            220          -1.017327     -5.893529      .20605  
 70            220          -.904925      -6.682696      .113839 
 80            220          -.940337      -7.122391     -.003051 
 90            220          -1.090847     -6.654385     -.026404 
 100           220          -1.326993     -5.420795      .101907 
 110           220          -1.620036     -4.022844      .352957 
 120           220          -1.935914     -2.863302      .635399 
 130           220          -2.228006     -2.096707      .84844  
 140           220          -2.435211     -1.762826      .924281 
 150           220          -2.495138     -1.845219      .852268 
 160           220          -2.37387      -2.262821      .69231  
 170           220          -2.091293     -2.826751      .566828 
 180           220          -1.714881     -3.238611      .600039 
 0             230          -6.730063     -5.206333     -2.891413
 10            230          -5.129365     -5.545253     -2.322032
 20            230          -3.13207      -5.149505     -1.014381
 30            230          -1.433508     -4.546075      .293583 
 40            230          -.145871      -4.178959      1.300137
 50            230           .773219      -4.201297      1.972666
 60            230           1.386376     -4.560408      2.37034 
 70            230           1.74765      -5.019843      2.577296
 80            230           1.897471     -5.168214      2.676711
 90            230           1.862196     -4.675351      2.732712
 100           230           1.654653     -3.657977      2.774882
 110           230           1.275645     -2.513169      2.792237
 120           230           .717529      -1.545446      2.7421  
 130           230          -.027596      -.89568        2.570315
 140           230          -.949381      -.605609       2.236206
 150           230          -1.97928      -.657507       1.741999
 160           230          -2.923418     -.973395       1.170434
 170           230          -3.437252     -1.397266      .711734 
 180           230          -3.238611     -1.714881      .600039 
 0             240          -8.912013     -4.1408       -2.891413
 10            240          -5.896926     -4.465407     -2.112149
 20            240          -2.736214     -4.29747      -.436759 
 30            240          -.39846       -3.9167        1.199652
 40            240           1.274373     -3.621612      2.492902
 50            240           2.457932     -3.544596      3.430653
 60            240           3.268685     -3.651381      4.072181
 70            240           3.780962     -3.770473      4.484054
 80            240           4.041003     -3.657297      4.722456
 90            240           4.074391     -3.160614      4.82627 
 100           240           3.889503     -2.362035      4.813388
 110           240           3.478731     -1.486875      4.68033 
 120           240           2.818401     -.733257       4.406252
 130           240           1.868149     -.211772       3.961831
 140           240           .572358       .039555       3.324422
 150           240          -1.123309      .036165       2.505308
 160           240          -3.178647     -.157619       1.599721
 170           240          -5.081432     -.430304       .849417 
 180           240          -5.42056      -.649348       .600039 
 0             250          -12.21038     -3.431696     -2.891413
 10            250          -6.736234     -3.693496     -1.943369
 20            250          -2.425821     -3.67764       .003517 
 30            250           .378581      -3.489489      1.871962
 40            250           2.305383     -3.271547      3.366917
 50            250           3.659423     -3.104492      4.489691
 60            250           4.597641     -2.978894      5.29699 
 70            250           5.207524     -2.815742      5.843269
 80            250           5.538822     -2.519884      6.169758
 90            250           5.617177     -2.050139      6.303143
 100           250           5.449852     -1.454048      6.256083
 110           250           5.02722      -.835113       6.028438
 120           250           4.320964     -.295133       5.609653
 130           250           3.278233      .098738       4.983476
 140           250           1.809022      .319767       4.13822 
 150           250          -.237995       .377389       3.090888
 160           250          -3.102213      .311663       1.942173
 170           250          -6.865487      .184265       .966126 
 180           250          -8.718927      .059755       .600039 
 0             260          -18.09801     -3.024383     -2.891413
 10            260          -7.601585     -3.167005     -1.830982
 20            260          -2.318255     -3.180311      .282371 
 30            260           .79898       -3.081013      2.288895
 40            260           2.887765     -2.903242      3.903765
 50            260           4.350013     -2.675057      5.13595 
 60            260           5.369566     -2.406431      6.039822
 70            260           6.04233      -2.093025      6.66298 
 80            260           6.420501     -1.729706      7.039177
 90            260           6.530269     -1.323659      7.189466
 100           260           6.379074     -.898623       7.124193
 110           260           5.957475     -.488839       6.844705
 120           260           5.236802     -.12838        6.345138
 130           260           4.161185      .157681       5.615592
 140           260           2.628489      .357586       4.650107
 150           260           .443194       .47319        3.468518
 160           260          -2.818017      .51735        2.172588
 170           260          -8.252753      .509064       1.051324
 180           260          -14.60656      .467069       .600039 
 0             270          -999          -2.891413     -2.891413
 10            270          -8.37407      -2.859123     -1.784072
 20            270          -2.486419     -2.763897      .387358 
 30            270           .811981      -2.610497      2.439801
 40            270           2.993971     -2.406324      4.094423
 50            270           4.517744     -2.160737      5.363   
 60            270           5.583318     -1.884269      6.299046
 70            270           6.292455     -1.58788       6.947943
 80            270           6.69979      -1.282321      7.341162
 90            270           6.832768     -.977661       7.498117
 100           270           6.69979      -.682976       7.428512
 110           270           6.292455     -.406195       7.134151
 120           270           5.583318     -.154051       6.610561
 130           270           4.517744      .067881       5.849726
 140           270           2.993971      .255118       4.847264
 150           270           .811981       .404159       3.623155
 160           270          -2.486419      .512399       2.277142
 170           270          -8.37407       .578043       1.098393
 180           270          -999           .600039       .600039 
 0             280          -18.09801     -3.024383     -2.891413
 10            280          -8.81116      -2.770768     -1.805619
 20            280          -2.949463     -2.455137      .315029 
 30            280           .394947      -2.135002      2.321951
 40            280           2.607988     -1.854421      3.936659
 50            280           4.152256     -1.632953      5.169466
 60            280           5.233101     -1.465074      6.07488 
 70            280           5.956097     -1.326487      6.700447
 80            280           6.378643     -1.185238      7.079877
 90            280           6.530263     -1.015318      7.234231
 100           280           6.421014     -.80767        7.173898
 110           280           6.044069     -.572738       6.900296
 120           280           5.37406      -.333477       6.407604
 130           280           4.360233     -.114          5.685791
 140           280           2.909814      .06957        4.728155
 150           280           .847495       .212768       3.552017
 160           280          -2.19698       .320957       2.252268
 170           280          -7.159535      .403602       1.104946
 180           280          -14.60656      .467069       .600039 
 0             290          -12.21038     -3.431696     -2.891413
 10            290          -8.633279     -2.926251     -1.892599
 20            290          -3.65211      -2.328656      .070136 
 30            290          -.447504      -1.79808       1.939798
 40            290           1.720794     -1.432914      3.434428
 50            290           3.240783     -1.263359      4.558494
 60            290           4.305979     -1.26332       5.369169
 70            290           5.021815     -1.36099       5.920851
 80            290           5.448132     -1.453977      6.254666
 90            290           5.617164     -1.443464      6.397235
 100           290           5.541374     -1.282915      6.361196
 110           290           5.216256     -1.002641      6.146414
 120           290           4.619777     -.682987       5.74225 
 130           290           3.708251     -.404106       5.131957
 140           290           2.406671     -.212248       4.302001
 150           290           .589269      -.110373       3.263822
 160           290          -1.95126      -.064442       2.10412 
 170           290          -5.44813      -.021791       1.072845
 180           290          -8.718927      .059755       .600039 
 0             300          -8.912013     -4.1408       -2.891413
 10            300          -7.806186     -3.372188     -2.036011
 20            300          -4.421034     -2.481513     -.33359  
 30            300          -1.65568      -1.75367       1.305901
 40            300           .342505      -1.32499       2.598601
 50            300           1.771907     -1.222188      3.538228
 60            300           2.781255     -1.401403      4.185426
 70            300           3.465854     -1.755726      4.606952
 80            300           3.885293     -2.113117      4.85884 
 90            300           4.074371     -2.275197      4.97964 
 100           300           4.048733     -2.129403      4.98678 
 110           300           3.80758      -1.736622      4.876232
 120           300           3.33467      -1.26946       4.626434
 130           300           2.598268     -.886756       4.206633
 140           300           1.550906     -.671908       3.590484
 150           300           .133192      -.627581       2.779743
 160           300          -1.696985     -.685171       1.848622
 170           300          -3.813804     -.727888       1.007965
 180           300          -5.42056      -.649348       .600039 
 0             310          -6.730063     -5.206333     -2.891413
 10            310          -6.616795     -4.182396     -2.220911
 20            310          -4.951133     -3.023492     -.870929 
 30            310          -3.040673     -2.138446      .444128 
 40            310          -1.448768     -1.675373      1.449707
 50            310          -.240555      -1.645287      2.123928
 60            310           .637507      -1.990514      2.52962 
 70            310           1.249167     -2.585364      2.752334
 80            310           1.645683     -3.204301      2.875511
 90            310           1.862163     -3.539534      2.962301
 100           310           1.917852     -3.385801      3.040123
 110           310           1.817526     -2.841398      3.095259
 120           310           1.553829     -2.194914      3.082271
 130           310           1.111065     -1.687764      2.943618
 140           310           .471833      -1.435992      2.632151
 150           310          -.369847      -1.445072      2.136031
 160           310          -1.380443     -1.619705      1.511874
 170           310          -2.431819     -1.77424       .919704 
 180           310          -3.238611     -1.714881      .600039 
 0             320          -5.206333     -6.730063     -2.891413
 10            320          -5.398883     -5.475569     -2.426757
 20            320          -4.973736     -4.092716     -1.500624
 30            320          -4.201275     -3.095089     -.602757 
 40            320          -3.380559     -2.62218       .025463 
 50            320          -2.667561     -2.663978      .344531 
 60            320          -2.103121     -3.152052      .414305 
 70            320          -1.673187     -3.953259      .345021 
 80            320          -1.346006     -4.807508      .269653 
 90            320          -1.090897     -5.304055      .30487  
 100           320          -.887265      -5.12949       .500532 
 110           320          -.727961      -4.422556      .816616 
 120           320          -.618612      -3.596214      1.153227
 130           320          -.574008      -2.964539      1.403472
 140           320          -.612641      -2.666824      1.490904
 150           320          -.750209      -2.713929      1.388288
 160           320          -.99234       -2.996629      1.130427
 170           320          -1.326583     -3.269141      .820155 
 180           320          -1.714881     -3.238611      .600039 
 0             330          -4.1408       -8.912013     -2.891413
 10            330          -4.357035     -7.465299     -2.628532
 20            330          -4.536982     -5.910028     -2.159168
 30            330          -4.697457     -4.838357     -1.757036
 40            330          -4.861929     -4.371097     -1.599283
 50            330          -5.035511     -4.477637     -1.737322
 60            330          -5.190333     -5.081142     -2.125094
 70            330          -5.26595      -6.046785     -2.628542
 80            330          -5.186528     -7.095111     -3.026508
 90            330          -4.89321      -7.729935     -3.073665
 100           330          -4.376538     -7.53027      -2.662912
 110           330          -3.684993     -6.673663     -1.916858
 120           330          -2.904384     -5.689401     -1.067071
 130           330          -2.128606     -4.947832     -.303063 
 140           330          -1.440897     -4.60262       .270125 
 150           330          -.907651      -4.670967      .616473 
 160           330          -.578378      -5.040181      .750453 
 170           330          -.486592      -5.419621      .722903 
 180           330          -.649348      -5.42056       .600039 
 0             340          -3.431696     -12.21038     -2.891413
 10            340          -3.583236     -10.61978     -2.799195
 20            340          -3.951487     -8.944049     -2.756389
 30            340          -4.552494     -7.827831     -2.878142
 40            340          -5.397269     -7.372377     -3.263196
 50            340          -6.48047      -7.530505     -3.96353 
 60            340          -7.748855     -8.219161     -4.967345
 70            340          -9.017233     -9.303979     -6.14794 
 80            340          -9.835746     -10.49604     -7.143055
 90            340          -9.622383     -11.23675     -7.344683
 100           340          -8.343901     -11.01449     -6.466774
 110           340          -6.568328     -10.03895     -4.955499
 120           340          -4.777129     -8.933243     -3.365609
 130           340          -3.185859     -8.106445     -1.973336
 140           340          -1.874418     -7.720172     -.869781 
 150           340          -.876646      -7.797332     -.073254 
 160           340          -.212647      -8.227286      .424273 
 170           340           .102842      -8.690321      .641435 
 180           340           .059755      -8.718927      .600039 
 0             350          -3.024383     -18.09801     -2.891413
 10            350          -3.111945     -16.41855     -2.913713
 20            350          -3.502107     -14.67208     -3.182435
 30            350          -4.219003     -13.53272     -3.738007
 40            350          -5.298017     -13.08763     -4.629705
 50            350          -6.7966       -13.27905     -5.916024
 60            350          -8.807859     -14.02006     -7.664593
 70            350          -11.43061     -15.17706     -9.901487
 80            350          -14.30369     -16.4572      -12.23801
 90            350          -14.80604     -17.26438     -12.85324
 100           350          -11.8225      -17.02674     -10.67739
 110           350          -8.504692     -15.97516     -7.789402
 120           350          -5.795584     -14.79338     -5.280368
 130           350          -3.660171     -13.91275     -3.268609
 140           350          -2.006085     -13.49874     -1.708538
 150           350          -.781215      -13.57815     -.55892  
 160           350           .036281      -14.04344      .202799 
 170           350           .45245       -14.55918      .587303 
 180           350           .467069      -14.60656      .600039 
 0             360          -2.891413     -999          -2.891413
 10            360          -2.954082     -999          -2.954082
 20            360          -3.338207     -999          -3.338207
 30            360          -4.068397     -999          -4.068397
 40            360          -5.184533     -999          -5.184533
 50            360          -6.759685     -999          -6.759685
 60            360          -8.937078     -999          -8.937078
 70            360          -11.9903      -999          -11.9903 
 80            360          -16.11387     -999          -16.11387
 90            360          -17.60508     -999          -17.60508
 100           360          -13.1829      -999          -13.1829 
 110           360          -9.098996     -999          -9.098996
 120           360          -6.068456     -999          -6.068456
 130           360          -3.771156     -999          -3.771156
 140           360          -2.021791     -999          -2.021791
 150           360          -.735116      -999          -.735116 
 160           360           .124204      -999           .124204 
 170           360           .568335      -999           .568335 
 180           360           .600039      -999           .600039 
