                   ****************************************
                     MINI-NUMERICAL ELECTROMAGNETICS CODE
                                   MININEC
                   ****************************************

FREQUENCY (MHZ): 450
    WAVE LENGTH =  .666222  METERS

ENVIRONMENT (+1 FOR FREE SPACE, -1 FOR GROUND PLANE): -1
 NUMBER OF MEDIA (0 FOR PERFECTLY CONDUCTING GROUND):  0

NO. OF GEO-OBJECTS: 2

WIRE NO. 1
            COORDINATES                                 END         NO. OF
   X             Y             Z          RADIUS     CONNECTION     SEGMENTS
 0             0             0                         -1
 .1125         0             .0239         .0005        0              3

HELIX NO. 2
            COORDINATES                                 END         NO. OF
   X             Y             Z          RADIUS     CONNECTION     SEGMENTS
 .1125         0             .0239                      1
 .1125         0             1.2239        .00635       0            160

                  **** ANTENNA GEOMETRY ****

WIRE NO.  1 COORDINATES                                 CONNECTION PULSE
X             Y             Z             RADIUS        END1 END2  NO.
 0             0             0             .0005        -1    1   1
 .0375         0             .007966       .0005         1    1   2
 .075          0             .015933       .0005         1    0   3

HELIX NO.  2 COORDINATES                                CONNECTION PULSE
X             Y             Z             RADIUS        END1 END2  NO.
 .1125         0             .0239         .00635        1    2   4
 .106994      -.034764       .0314         .00635        2    2   5
 .091014      -.066125       .0389         .00635        2    2   6
 .066125      -.091014       .0464         .00635        2    2   7
 .034764      -.106994       .0539         .00635        2    2   8
 0            -.1125         .0614         .00635        2    2   9
-.034764      -.106994       .0689         .00635        2    2  10
-.066125      -.091014       .0764         .00635        2    2  11
-.091014      -.066125       .0839         .00635        2    2  12
-.106994      -.034764       .0914         .00635        2    2  13
-.1125         0             .0989         .00635        2    2  14
-.106994       .034764       .1064         .00635        2    2  15
-.091014       .066125       .1139         .00635        2    2  16
-.066125       .091014       .1214         .00635        2    2  17
-.034764       .106994       .1289         .00635        2    2  18
 0             .1125         .1364         .00635        2    2  19
 .034764       .106994       .1439         .00635        2    2  20
 .066125       .091014       .1514         .00635        2    2  21
 .091014       .066125       .1589         .00635        2    2  22
 .106994       .034764       .1664         .00635        2    2  23
 .1125         0             .1739         .00635        2    2  24
 .106994      -.034764       .1814         .00635        2    2  25
 .091014      -.066125       .1889         .00635        2    2  26
 .066125      -.091014       .1964         .00635        2    2  27
 .034764      -.106994       .2039         .00635        2    2  28
 0            -.1125         .2114         .00635        2    2  29
-.034764      -.106994       .2189         .00635        2    2  30
-.066125      -.091014       .2264         .00635        2    2  31
-.091014      -.066125       .2339         .00635        2    2  32
-.106994      -.034764       .2414         .00635        2    2  33
-.1125         0             .2489         .00635        2    2  34
-.106994       .034764       .2564         .00635        2    2  35
-.091014       .066125       .2639         .00635        2    2  36
-.066125       .091014       .2714         .00635        2    2  37
-.034764       .106994       .2789         .00635        2    2  38
 0             .1125         .2864         .00635        2    2  39
 .034764       .106994       .2939         .00635        2    2  40
 .066125       .091014       .3014         .00635        2    2  41
 .091014       .066125       .3089         .00635        2    2  42
 .106994       .034764       .3164         .00635        2    2  43
 .1125         0             .3239         .00635        2    2  44
 .106994      -.034764       .3314         .00635        2    2  45
 .091014      -.066125       .3389         .00635        2    2  46
 .066125      -.091014       .3464         .00635        2    2  47
 .034764      -.106994       .3539         .00635        2    2  48
 0            -.1125         .3614         .00635        2    2  49
-.034764      -.106994       .3689         .00635        2    2  50
-.066125      -.091014       .3764         .00635        2    2  51
-.091014      -.066125       .3839         .00635        2    2  52
-.106994      -.034764       .3914         .00635        2    2  53
-.1125         0             .3989         .00635        2    2  54
-.106994       .034764       .4064         .00635        2    2  55
-.091014       .066125       .4139         .00635        2    2  56
-.066125       .091014       .4214         .00635        2    2  57
-.034764       .106994       .4289         .00635        2    2  58
 0             .1125         .4364         .00635        2    2  59
 .034764       .106994       .4439         .00635        2    2  60
 .066125       .091014       .4514         .00635        2    2  61
 .091014       .066125       .4589         .00635        2    2  62
 .106994       .034764       .4664         .00635        2    2  63
 .1125         0             .4739         .00635        2    2  64
 .106994      -.034764       .4814         .00635        2    2  65
 .091014      -.066125       .4889         .00635        2    2  66
 .066125      -.091014       .4964         .00635        2    2  67
 .034764      -.106994       .5039         .00635        2    2  68
 0            -.1125         .5114         .00635        2    2  69
-.034764      -.106994       .5189         .00635        2    2  70
-.066125      -.091014       .5264         .00635        2    2  71
-.091014      -.066125       .5339         .00635        2    2  72
-.106994      -.034764       .5414         .00635        2    2  73
-.1125         0             .5489         .00635        2    2  74
-.106994       .034764       .5564         .00635        2    2  75
-.091014       .066125       .5639         .00635        2    2  76
-.066125       .091014       .5714         .00635        2    2  77
-.034764       .106994       .5789         .00635        2    2  78
 0             .1125         .5864         .00635        2    2  79
 .034764       .106994       .5939         .00635        2    2  80
 .066125       .091014       .6014         .00635        2    2  81
 .091014       .066125       .6089         .00635        2    2  82
 .106994       .034764       .6164         .00635        2    2  83
 .1125         0             .6239         .00635        2    2  84
 .106994      -.034764       .6314         .00635        2    2  85
 .091014      -.066125       .6389         .00635        2    2  86
 .066125      -.091014       .6464         .00635        2    2  87
 .034764      -.106994       .6539         .00635        2    2  88
 0            -.1125         .6614         .00635        2    2  89
-.034764      -.106994       .6689         .00635        2    2  90
-.066125      -.091014       .6764         .00635        2    2  91
-.091014      -.066125       .6839         .00635        2    2  92
-.106994      -.034764       .6914         .00635        2    2  93
-.1125         0             .6989         .00635        2    2  94
-.106994       .034764       .7064         .00635        2    2  95
-.091014       .066125       .7139         .00635        2    2  96
-.066125       .091014       .7214         .00635        2    2  97
-.034764       .106994       .7289         .00635        2    2  98
 0             .1125         .7364         .00635        2    2  99
 .034764       .106994       .7439         .00635        2    2 100
 .066125       .091014       .7514         .00635        2    2 101
 .091014       .066125       .7589         .00635        2    2 102
 .106994       .034764       .7664         .00635        2    2 103
 .1125         0             .7739         .00635        2    2 104
 .106994      -.034764       .7814         .00635        2    2 105
 .091014      -.066125       .7889         .00635        2    2 106
 .066125      -.091014       .7964         .00635        2    2 107
 .034764      -.106994       .8039         .00635        2    2 108
 0            -.1125         .8114         .00635        2    2 109
-.034764      -.106994       .8189         .00635        2    2 110
-.066125      -.091014       .8264         .00635        2    2 111
-.091014      -.066125       .8339         .00635        2    2 112
-.106994      -.034764       .8414         .00635        2    2 113
-.1125         0             .8489         .00635        2    2 114
-.106994       .034764       .8564         .00635        2    2 115
-.091014       .066125       .8639         .00635        2    2 116
-.066125       .091014       .8714         .00635        2    2 117
-.034764       .106994       .8789         .00635        2    2 118
 0             .1125         .8864         .00635        2    2 119
 .034764       .106994       .8939         .00635        2    2 120
 .066125       .091014       .9014         .00635        2    2 121
 .091014       .066125       .9089         .00635        2    2 122
 .106994       .034764       .9164         .00635        2    2 123
 .1125         0             .9239         .00635        2    2 124
 .106994      -.034764       .9314         .00635        2    2 125
 .091014      -.066125       .9389         .00635        2    2 126
 .066125      -.091014       .9464         .00635        2    2 127
 .034764      -.106994       .9539         .00635        2    2 128
 0            -.1125         .9614         .00635        2    2 129
-.034764      -.106994       .9689         .00635        2    2 130
-.066125      -.091014       .9764         .00635        2    2 131
-.091014      -.066125       .9839         .00635        2    2 132
-.106994      -.034764       .9914         .00635        2    2 133
-.1125         0             .9989         .00635        2    2 134
-.106994       .034764       1.0064        .00635        2    2 135
-.091014       .066125       1.0139        .00635        2    2 136
-.066125       .091014       1.0214        .00635        2    2 137
-.034764       .106994       1.0289        .00635        2    2 138
 0             .1125         1.0364        .00635        2    2 139
 .034764       .106994       1.0439        .00635        2    2 140
 .066125       .091014       1.0514        .00635        2    2 141
 .091014       .066125       1.0589        .00635        2    2 142
 .106994       .034764       1.0664        .00635        2    2 143
 .1125         0             1.0739        .00635        2    2 144
 .106994      -.034764       1.0814        .00635        2    2 145
 .091014      -.066125       1.0889        .00635        2    2 146
 .066125      -.091014       1.0964        .00635        2    2 147
 .034764      -.106994       1.1039        .00635        2    2 148
 0            -.1125         1.1114        .00635        2    2 149
-.034764      -.106994       1.1189        .00635        2    2 150
-.066125      -.091014       1.1264        .00635        2    2 151
-.091014      -.066125       1.1339        .00635        2    2 152
-.106994      -.034764       1.1414        .00635        2    2 153
-.1125         0             1.1489        .00635        2    2 154
-.106994       .034764       1.1564        .00635        2    2 155
-.091014       .066125       1.1639        .00635        2    2 156
-.066125       .091014       1.1714        .00635        2    2 157
-.034764       .106994       1.1789        .00635        2    2 158
 0             .1125         1.1864        .00635        2    2 159
 .034764       .106994       1.1939        .00635        2    2 160
 .066125       .091014       1.2014        .00635        2    2 161
 .091014       .066125       1.2089        .00635        2    2 162
 .106994       .034764       1.2164        .00635        2    0 163

NO. OF SOURCES :  1
PULSE NO., VOLTAGE MAGNITUDE, PHASE (DEGREES):  1 , 1 , 0
NUMBER OF LOADS 0

********************    SOURCE DATA     ********************
PULSE  1      VOLTAGE = ( 1 , 0 J)
              CURRENT = ( 8.632180E-03 , -7.015195E-04 J)
              IMPEDANCE = ( 115.0855 ,  9.352763 J)
              POWER =  4.316090E-03  WATTS

********************    CURRENT DATA    ********************

WIRE NO.  1 :
PULSE         REAL          IMAGINARY     MAGNITUDE     PHASE
 NO.          (AMPS)        (AMPS)        (AMPS)        (DEGREES)
 1             8.632180E-03 -7.015195E-04  8.660639E-03 -4.6461   
 2             8.651468E-03  7.282588E-04  8.682065E-03  4.811671 
 3             9.187227E-03 -1.131807E-03  9.256680E-03 -7.023083 
J              8.646645E-03 -2.338132E-03  8.957195E-03 -15.13142 
HELIX NO.  2 :
PULSE         REAL          IMAGINARY     MAGNITUDE     PHASE
 NO.          (AMPS)        (AMPS)        (AMPS)        (DEGREES)
J              8.646645E-03 -2.338132E-03  8.957195E-03 -15.13142 
 5             6.368733E-03 -5.144074E-03  8.186712E-03 -38.92807 
 6             3.874722E-03 -6.846252E-03  7.866678E-03 -60.49177 
 7             1.218589E-03 -7.658888E-03  7.755226E-03 -80.95957 
 8            -1.341842E-03 -7.568927E-03  7.686949E-03 -100.0531 
 9            -3.560982E-03 -6.652269E-03  7.545414E-03 -118.1603 
 10           -5.230459E-03 -5.060549E-03  7.277833E-03 -135.9459 
 11           -6.205720E-03 -3.009168E-03  6.896814E-03 -154.1311 
 12           -6.423142E-03 -7.538621E-04  6.467229E-03 -173.306  
 13           -5.906572E-03  1.438914E-03  6.079315E-03  166.3087 
 14           -4.762495E-03  3.323387E-03  5.807431E-03  145.0917 
 15           -3.164553E-03  4.703077E-03  5.668627E-03  123.9354 
 16           -1.329716E-03  5.452596E-03  5.612392E-03  103.7051 
 17            5.104808E-04  5.529733E-03  5.553246E-03  84.72565 
 18            2.139514E-03  4.976460E-03  5.416888E-03  66.73583 
 19            3.382240E-03  3.909162E-03  5.169245E-03  49.13336 
 20            4.124627E-03  2.499975E-03  4.823114E-03  31.22044 
 21            4.324534E-03  9.520681E-04  4.428096E-03  12.41589 
 22            4.012306E-03 -5.280222E-04  4.046901E-03 -7.497082 
 23            3.280939E-03 -1.758330E-03  3.722404E-03 -28.18787 
 24            2.267205E-03 -2.606220E-03  3.454359E-03 -48.97931 
 25            1.128553E-03 -3.003938E-03  3.208937E-03 -69.40925 
 26            2.171335E-05 -2.950838E-03  2.950918E-03 -89.5784  
 27           -9.155338E-04 -2.505842E-03  2.667854E-03 -110.0703 
 28           -1.580031E-03 -1.774841E-03  2.376249E-03 -131.6767 
 29           -1.914861E-03 -8.939148E-04  2.113239E-03 -154.9754 
 30           -1.914681E-03 -9.049424E-06  1.914703E-03 -179.7292 
 31           -1.623541E-03  7.452551E-04  1.786418E-03  155.3434 
 32           -1.125377E-03  1.265279E-03  1.693341E-03  131.6509 
 33           -5.286892E-04  1.492186E-03  1.583077E-03  109.5095 
 34            5.207704E-05  1.418706E-03  1.419661E-03  87.89776 
 35            5.153345E-04  1.087410E-03  1.203341E-03  64.64326 
 36            7.882476E-04  5.810805E-04  9.792798E-04  36.3969  
 37            8.371882E-04  6.971594E-06  8.372172E-04  .477113  
 38            6.712219E-04 -5.222178E-04  8.504413E-04 -37.8833  
 39            3.383353E-04 -9.074045E-04  9.684285E-04 -69.5515  
 40           -8.465776E-05 -1.079089E-03  1.082405E-03 -94.48584 
 41           -5.065835E-04 -1.007792E-03  1.127950E-03 -116.6871 
 42           -8.381855E-04 -7.075712E-04  1.096910E-03 -139.8299 
 43           -1.007490E-03 -2.324492E-04  1.033958E-03 -167.008  
 44           -9.718271E-04  3.333361E-04  1.027405E-03  161.0681 
 45           -7.247497E-04  8.894989E-04  1.147375E-03  129.1726 
 46           -2.969990E-04  1.336022E-03  1.368635E-03  102.5331 
 47            2.483792E-04  1.589185E-03  1.608478E-03  81.11691 
 48            8.258673E-04  1.595030E-03  1.796157E-03  62.626   
 49            1.340780E-03  1.338365E-03  1.894443E-03  44.94836 
 50            1.704158E-03  8.459905E-04  1.902591E-03  26.40106 
 51            1.847118E-03  1.835428E-04  1.856215E-03  5.67469  
 52            1.732497E-03 -5.537826E-04  1.818852E-03 -17.72617 
 53            1.361880E-03 -1.255419E-03  1.852240E-03 -42.67073 
 54            7.767171E-04 -1.812454E-03  1.971872E-03 -66.80272 
 55            5.314858E-05 -2.134848E-03  2.135509E-03 -88.57387 
 56           -7.088373E-04 -2.166040E-03  2.279074E-03 -108.1207 
 57           -1.400279E-03 -1.892513E-03  2.354227E-03 -126.4979 
 58           -1.919809E-03 -1.346647E-03  2.345021E-03 -144.9523 
 59           -2.189264E-03 -6.023641E-04  2.270621E-03 -164.616  
 60           -2.165814E-03  2.357880E-04  2.178611E-03  173.7868 
 61           -1.848707E-03  1.048307E-03  2.125245E-03  150.4447 
 62           -1.279592E-03  1.718654E-03  2.142692E-03  126.6689 
 63           -5.364679E-04  2.150587E-03  2.216489E-03  104.0067 
 64            2.777292E-04  2.282260E-03  2.299096E-03  83.06177 
 65            1.050067E-03  2.095078E-03  2.343500E-03  63.37968 
 66            1.673832E-03  1.616155E-03  2.326730E-03  43.99564 
 67            2.063675E-03  9.141882E-04  2.257098E-03  23.89289 
 68            2.167567E-03  8.947995E-05  2.169413E-03  2.363902 
 69            1.973999E-03 -7.404512E-04  2.108303E-03 -20.56117 
 70            1.513459E-03 -1.457677E-03  2.101280E-03 -43.92442 
 71            8.539834E-04 -1.960787E-03  2.138685E-03 -66.46539 
 72            9.135903E-05 -2.179580E-03  2.181493E-03 -87.5998  
 73           -6.647234E-04 -2.085362E-03  2.188742E-03 -107.68   
 74           -1.306624E-03 -1.695273E-03  2.140377E-03 -127.6231 
 75           -1.744494E-03 -1.069818E-03  2.046404E-03 -148.4811 
 76           -1.919431E-03 -3.038715E-04  1.943336E-03 -171.004  
 77           -1.812002E-03  4.876076E-04  1.876463E-03  164.9386 
 78           -1.444779E-03  1.186974E-03  1.869838E-03  140.5948 
 79           -8.784786E-04  1.691706E-03  1.906199E-03  117.4422 
 80           -2.023092E-04  1.929826E-03  1.940401E-03  95.98462 
 81            4.799299E-04  1.870493E-03  1.931082E-03  75.60952 
 82            1.065789E-03  1.528157E-03  1.863108E-03  55.10676 
 83            1.469641E-03  9.597128E-04  1.755247E-03  33.14555 
 84            1.635293E-03  2.552320E-04  1.655091E-03  8.870997 
 85            1.543867E-03 -4.761413E-04  1.615622E-03 -17.14019 
 86            1.215861E-03 -1.122881E-03  1.655047E-03 -42.72334 
 87            7.072228E-04 -1.587793E-03  1.738174E-03 -65.99121 
 88            1.002020E-04 -1.802297E-03  1.805081E-03 -86.81781 
 89           -5.095497E-04 -1.736282E-03  1.809508E-03 -106.3555 
 90           -1.027638E-03 -1.402188E-03  1.738439E-03 -126.237  
 91           -1.375180E-03 -8.528141E-04  1.618151E-03 -148.195  
 92           -1.500567E-03 -1.732138E-04  1.510531E-03 -173.4154 
 93           -1.387032E-03  5.321688E-04  1.485618E-03  159.0095 
 94           -1.054909E-03  1.155251E-03  1.564429E-03  132.4005 
 95           -5.582549E-04  1.600654E-03  1.695211E-03  109.2271 
 96            2.368194E-05  1.800183E-03  1.800339E-03  89.2463  
 97            5.988326E-04  1.723241E-03  1.824325E-03  70.83747 
 98            1.076630E-03  1.381513E-03  1.751489E-03  52.07027 
 99            1.382062E-03  8.271717E-04  1.610686E-03  30.90075 
 100           1.467267E-03  1.448342E-04  1.474398E-03  5.637411 
 101           1.318891E-03 -5.614642E-04  1.433428E-03 -23.0599  
 102           9.600741E-04 -1.184234E-03  1.524517E-03 -50.96787 
 103           4.468009E-04 -1.628916E-03  1.689082E-03 -74.6614  
 104          -1.407912E-04 -1.828140E-03  1.833553E-03 -94.40385 
 105          -7.107810E-04 -1.751718E-03  1.890430E-03 -112.0855 
 106          -1.173603E-03 -1.410944E-03  1.835240E-03 -129.7532 
 107          -1.455810E-03 -8.566768E-04  1.689165E-03 -149.5252 
 108          -1.511408E-03 -1.715895E-04  1.521117E-03 -173.523  
 109          -1.329053E-03  5.422031E-04  1.435397E-03  157.8064 
 110          -9.340583E-04  1.178331E-03  1.503639E-03  128.4037 
 111          -3.848661E-04  1.641983E-03  1.686485E-03  103.1915 
 112           2.355438E-04  1.864059E-03  1.878882E-03  82.79824 
 113           8.320760E-04  1.811590E-03  1.993542E-03  65.33035 
 114           1.311958E-03  1.492829E-03  1.987404E-03  48.68969 
 115           1.599019E-03  9.561696E-04  1.863095E-03  30.87827 
 116           1.645600E-03  2.829568E-04  1.669750E-03  9.756456 
 117           1.440222E-03 -4.248196E-04  1.501570E-03 -16.43438 
 118           1.009741E-03 -1.060114E-03  1.464042E-03 -46.39409 
 119           4.156138E-04 -1.527301E-03  1.582840E-03 -74.77711 
 120          -2.551968E-04 -1.756942E-03  1.775379E-03 -98.26445 
 121          -9.032773E-04 -1.716463E-03  1.939628E-03 -117.7553 
 122          -1.431760E-03 -1.415018E-03  2.013011E-03 -135.337  
 123          -1.760934E-03 -9.017348E-04  1.978387E-03 -152.884  
 124          -1.840218E-03 -2.576944E-04  1.858174E-03 -172.0284 
 125          -1.655673E-03  4.170098E-04  1.707381E-03  165.8631 
 126          -1.231957E-03  1.018939E-03  1.598735E-03  140.4062 
 127          -6.285146E-04  1.457158E-03  1.586928E-03  113.3319 
 128           6.930534E-05  1.666809E-03  1.668249E-03  87.61903 
 129           7.628012E-04  1.618473E-03  1.789224E-03  64.76507 
 130           1.354235E-03  1.322105E-03  1.892594E-03  44.31218 
 131           1.760830E-03  8.251577E-04  1.944584E-03  25.10867 
 132           1.926466E-03  2.052855E-04  1.937373E-03  6.082524 
 133           1.829445E-03 -4.413051E-04  1.881919E-03 -13.562   
 134           1.485262E-03 -1.014201E-03  1.798501E-03 -34.32697 
 135           9.440082E-04 -1.423828E-03  1.708343E-03 -56.45533 
 136           2.828205E-04 -1.605047E-03  1.629774E-03 -80.00667 
 137          -4.055461E-04 -1.527328E-03  1.580253E-03 -104.8704 
 138          -1.026311E-03 -1.199920E-03  1.578962E-03 -130.5409 
 139          -1.496430E-03 -6.711386E-04  1.640039E-03 -155.8441 
 140          -1.756502E-03 -2.173601E-05  1.756636E-03 -179.291  
 141          -1.779104E-03  6.467856E-04  1.893024E-03  160.0215 
 142          -1.572409E-03  1.227225E-03  1.994631E-03  142.0289 
 143          -1.178580E-03  1.622902E-03  2.005707E-03  125.9878 
 144          -6.669489E-04  1.762869E-03  1.884815E-03  110.7232 
 145          -1.223892E-04  1.614436E-03  1.619069E-03  94.33526 
 146           3.696365E-04  1.191002E-03  1.247043E-03  72.75787 
 147           7.377873E-04  5.519075E-04  9.213750E-04  36.79861 
 148           9.358561E-04 -2.070578E-04  9.584882E-04 -12.47569 
 149           9.489920E-04 -9.695393E-04  1.356684E-03 -45.61361 
 150           7.949311E-04 -1.617007E-03  1.801840E-03 -63.82097 
 151           5.200161E-04 -2.046859E-03  2.111882E-03 -75.74526 
 152           1.904262E-04 -2.187913E-03  2.196184E-03 -85.02576 
 153          -1.200274E-04 -2.011183E-03  2.014762E-03 -93.41536 
 154          -3.434900E-04 -1.534441E-03  1.572417E-03 -102.6178 
 155          -4.306992E-04 -8.199396E-04  9.261765E-04 -117.7121 
 156          -3.604667E-04  3.434257E-05  3.620989E-04  174.5577 
 157          -1.443081E-04  9.086181E-04  9.200063E-04  99.02443 
 158           1.746570E-04  1.678337E-03  1.687401E-03  84.05887 
 159           5.284188E-04  2.231844E-03  2.293546E-03  76.67974 
 160           8.352199E-04  2.485964E-03  2.622519E-03  71.42897 
 161           1.012964E-03  2.396935E-03  2.602190E-03  67.09069 
 162           9.909137E-04  1.962972E-03  2.198902E-03  63.21523 
 163           7.238563E-04  1.227017E-03  1.424618E-03  59.46229 
E              0             0             0             0


