                   ****************************************
                     MINI-NUMERICAL ELECTROMAGNETICS CODE
                                   MININEC
                   ****************************************

FREQUENCY (MHZ): 1000
    WAVE LENGTH =  .2998  METERS

ENVIRONMENT (+1 FOR FREE SPACE, -1 FOR GROUND PLANE): +1

NO. OF GEO-OBJECTS: 498

WIRE NO. 1
            COORDINATES                                 END         NO. OF
   X             Y             Z          RADIUS     CONNECTION     SEGMENTS
 .052324       0             0                          0
 .05461        0             .02032        .002381      0              3

HELIX NO. 2
            COORDINATES                                 END         NO. OF
   X             Y             Z          RADIUS     CONNECTION     SEGMENTS
 .05461        0             .02032                     1
 .05429        .0059         .78232        .002381      0            160

WIRE NO. 3
            COORDINATES                                 END         NO. OF
   X             Y             Z          RADIUS     CONNECTION     SEGMENTS
-.078486      -.104648       0                          0
-.052324      -.104648       0             .004163      0              1

WIRE NO. 4
            COORDINATES                                 END         NO. OF
   X             Y             Z          RADIUS     CONNECTION     SEGMENTS
-.052324      -.104648       0                          3
-.026162      -.104648       0             .004163      0              1

WIRE NO. 5
            COORDINATES                                 END         NO. OF
   X             Y             Z          RADIUS     CONNECTION     SEGMENTS
-.026162      -.104648       0                          4
 0            -.104648       0             .004163      0              1

WIRE NO. 6
            COORDINATES                                 END         NO. OF
   X             Y             Z          RADIUS     CONNECTION     SEGMENTS
 0            -.104648       0                          5
 .026162      -.104648       0             .004163      0              1

WIRE NO. 7
            COORDINATES                                 END         NO. OF
   X             Y             Z          RADIUS     CONNECTION     SEGMENTS
 .026162      -.104648       0                          6
 .052324      -.104648       0             .004163      0              1

WIRE NO. 8
            COORDINATES                                 END         NO. OF
   X             Y             Z          RADIUS     CONNECTION     SEGMENTS
 .052324      -.104648       0                          7
 .078486      -.104648       0             .004163      0              1

WIRE NO. 9
            COORDINATES                                 END         NO. OF
   X             Y             Z          RADIUS     CONNECTION     SEGMENTS
-.104648      -.078486       0                          0
-.078486      -.078486       0             .004163      0              1

WIRE NO. 10
            COORDINATES                                 END         NO. OF
   X             Y             Z          RADIUS     CONNECTION     SEGMENTS
-.078486      -.078486       0                          9
-.052324      -.078486       0             .004163      0              1

WIRE NO. 11
            COORDINATES                                 END         NO. OF
   X             Y             Z          RADIUS     CONNECTION     SEGMENTS
-.052324      -.078486       0                         10
-.026162      -.078486       0             .004163      0              1

WIRE NO. 12
            COORDINATES                                 END         NO. OF
   X             Y             Z          RADIUS     CONNECTION     SEGMENTS
-.026162      -.078486       0                         11
 0            -.078486       0             .004163      0              1

WIRE NO. 13
            COORDINATES                                 END         NO. OF
   X             Y             Z          RADIUS     CONNECTION     SEGMENTS
 0            -.078486       0                         12
 .026162      -.078486       0             .004163      0              1

WIRE NO. 14
            COORDINATES                                 END         NO. OF
   X             Y             Z          RADIUS     CONNECTION     SEGMENTS
 .026162      -.078486       0                         13
 .052324      -.078486       0             .004163      0              1

WIRE NO. 15
            COORDINATES                                 END         NO. OF
   X             Y             Z          RADIUS     CONNECTION     SEGMENTS
 .052324      -.078486       0                         14
 .078486      -.078486       0             .004163      0              1

WIRE NO. 16
            COORDINATES                                 END         NO. OF
   X             Y             Z          RADIUS     CONNECTION     SEGMENTS
 .078486      -.078486       0                         15
 .104648      -.078486       0             .004163      0              1

WIRE NO. 17
            COORDINATES                                 END         NO. OF
   X             Y             Z          RADIUS     CONNECTION     SEGMENTS
-.104648      -.052324       0                          0
-.078486      -.052324       0             .004163      0              1

WIRE NO. 18
            COORDINATES                                 END         NO. OF
   X             Y             Z          RADIUS     CONNECTION     SEGMENTS
-.078486      -.052324       0                         17
-.052324      -.052324       0             .004163      0              1

WIRE NO. 19
            COORDINATES                                 END         NO. OF
   X             Y             Z          RADIUS     CONNECTION     SEGMENTS
-.052324      -.052324       0                         18
-.026162      -.052324       0             .004163      0              1

WIRE NO. 20
            COORDINATES                                 END         NO. OF
   X             Y             Z          RADIUS     CONNECTION     SEGMENTS
-.026162      -.052324       0                         19
 0            -.052324       0             .004163      0              1

WIRE NO. 21
            COORDINATES                                 END         NO. OF
   X             Y             Z          RADIUS     CONNECTION     SEGMENTS
 0            -.052324       0                         20
 .026162      -.052324       0             .004163      0              1

WIRE NO. 22
            COORDINATES                                 END         NO. OF
   X             Y             Z          RADIUS     CONNECTION     SEGMENTS
 .026162      -.052324       0                         21
 .052324      -.052324       0             .004163      0              1

WIRE NO. 23
            COORDINATES                                 END         NO. OF
   X             Y             Z          RADIUS     CONNECTION     SEGMENTS
 .052324      -.052324       0                         22
 .078486      -.052324       0             .004163      0              1

WIRE NO. 24
            COORDINATES                                 END         NO. OF
   X             Y             Z          RADIUS     CONNECTION     SEGMENTS
 .078486      -.052324       0                         23
 .104648      -.052324       0             .004163      0              1

WIRE NO. 25
            COORDINATES                                 END         NO. OF
   X             Y             Z          RADIUS     CONNECTION     SEGMENTS
-.104648      -.026162       0                          0
-.078486      -.026162       0             .004163      0              1

WIRE NO. 26
            COORDINATES                                 END         NO. OF
   X             Y             Z          RADIUS     CONNECTION     SEGMENTS
-.078486      -.026162       0                         25
-.052324      -.026162       0             .004163      0              1

WIRE NO. 27
            COORDINATES                                 END         NO. OF
   X             Y             Z          RADIUS     CONNECTION     SEGMENTS
-.052324      -.026162       0                         26
-.026162      -.026162       0             .004163      0              1

WIRE NO. 28
            COORDINATES                                 END         NO. OF
   X             Y             Z          RADIUS     CONNECTION     SEGMENTS
-.026162      -.026162       0                         27
 0            -.026162       0             .004163      0              1

WIRE NO. 29
            COORDINATES                                 END         NO. OF
   X             Y             Z          RADIUS     CONNECTION     SEGMENTS
 0            -.026162       0                         28
 .026162      -.026162       0             .004163      0              1

WIRE NO. 30
            COORDINATES                                 END         NO. OF
   X             Y             Z          RADIUS     CONNECTION     SEGMENTS
 .026162      -.026162       0                         29
 .052324      -.026162       0             .004163      0              1

WIRE NO. 31
            COORDINATES                                 END         NO. OF
   X             Y             Z          RADIUS     CONNECTION     SEGMENTS
 .052324      -.026162       0                         30
 .078486      -.026162       0             .004163      0              1

WIRE NO. 32
            COORDINATES                                 END         NO. OF
   X             Y             Z          RADIUS     CONNECTION     SEGMENTS
 .078486      -.026162       0                         31
 .104648      -.026162       0             .004163      0              1

WIRE NO. 33
            COORDINATES                                 END         NO. OF
   X             Y             Z          RADIUS     CONNECTION     SEGMENTS
-.13081        0             0                          0
-.104648       0             0             .004163      0              1

WIRE NO. 34
            COORDINATES                                 END         NO. OF
   X             Y             Z          RADIUS     CONNECTION     SEGMENTS
-.104648       0             0                         33
-.078486       0             0             .004163      0              1

WIRE NO. 35
            COORDINATES                                 END         NO. OF
   X             Y             Z          RADIUS     CONNECTION     SEGMENTS
-.078486       0             0                         34
-.052324       0             0             .004163      0              1

WIRE NO. 36
            COORDINATES                                 END         NO. OF
   X             Y             Z          RADIUS     CONNECTION     SEGMENTS
-.052324       0             0                         35
-.026162       0             0             .004163      0              1

WIRE NO. 37
            COORDINATES                                 END         NO. OF
   X             Y             Z          RADIUS     CONNECTION     SEGMENTS
-.026162       0             0                         36
 0             0             0             .004163      0              1

WIRE NO. 38
            COORDINATES                                 END         NO. OF
   X             Y             Z          RADIUS     CONNECTION     SEGMENTS
 0             0             0                         37
 .026162       0             0             .004163      0              1

WIRE NO. 39
            COORDINATES                                 END         NO. OF
   X             Y             Z          RADIUS     CONNECTION     SEGMENTS
 .026162       0             0                         38
 .052324       0             0             .004163      1              1

WIRE NO. 40
            COORDINATES                                 END         NO. OF
   X             Y             Z          RADIUS     CONNECTION     SEGMENTS
 .052324       0             0                         -1
 .078486       0             0             .004163      0              1

WIRE NO. 41
            COORDINATES                                 END         NO. OF
   X             Y             Z          RADIUS     CONNECTION     SEGMENTS
 .078486       0             0                         40
 .104648       0             0             .004163      0              1

WIRE NO. 42
            COORDINATES                                 END         NO. OF
   X             Y             Z          RADIUS     CONNECTION     SEGMENTS
 .104648       0             0                         41
 .13081        0             0             .004163      0              1

WIRE NO. 43
            COORDINATES                                 END         NO. OF
   X             Y             Z          RADIUS     CONNECTION     SEGMENTS
-.104648       .026162       0                          0
-.078486       .026162       0             .004163      0              1

WIRE NO. 44
            COORDINATES                                 END         NO. OF
   X             Y             Z          RADIUS     CONNECTION     SEGMENTS
-.078486       .026162       0                         43
-.052324       .026162       0             .004163      0              1

WIRE NO. 45
            COORDINATES                                 END         NO. OF
   X             Y             Z          RADIUS     CONNECTION     SEGMENTS
-.052324       .026162       0                         44
-.026162       .026162       0             .004163      0              1

WIRE NO. 46
            COORDINATES                                 END         NO. OF
   X             Y             Z          RADIUS     CONNECTION     SEGMENTS
-.026162       .026162       0                         45
 0             .026162       0             .004163      0              1

WIRE NO. 47
            COORDINATES                                 END         NO. OF
   X             Y             Z          RADIUS     CONNECTION     SEGMENTS
 0             .026162       0                         46
 .026162       .026162       0             .004163      0              1

WIRE NO. 48
            COORDINATES                                 END         NO. OF
   X             Y             Z          RADIUS     CONNECTION     SEGMENTS
 .026162       .026162       0                         47
 .052324       .026162       0             .004163      0              1

WIRE NO. 49
            COORDINATES                                 END         NO. OF
   X             Y             Z          RADIUS     CONNECTION     SEGMENTS
 .052324       .026162       0                         48
 .078486       .026162       0             .004163      0              1

WIRE NO. 50
            COORDINATES                                 END         NO. OF
   X             Y             Z          RADIUS     CONNECTION     SEGMENTS
 .078486       .026162       0                         49
 .104648       .026162       0             .004163      0              1

WIRE NO. 51
            COORDINATES                                 END         NO. OF
   X             Y             Z          RADIUS     CONNECTION     SEGMENTS
-.104648       .052324       0                          0
-.078486       .052324       0             .004163      0              1

WIRE NO. 52
            COORDINATES                                 END         NO. OF
   X             Y             Z          RADIUS     CONNECTION     SEGMENTS
-.078486       .052324       0                         51
-.052324       .052324       0             .004163      0              1

WIRE NO. 53
            COORDINATES                                 END         NO. OF
   X             Y             Z          RADIUS     CONNECTION     SEGMENTS
-.052324       .052324       0                         52
-.026162       .052324       0             .004163      0              1

WIRE NO. 54
            COORDINATES                                 END         NO. OF
   X             Y             Z          RADIUS     CONNECTION     SEGMENTS
-.026162       .052324       0                         53
 0             .052324       0             .004163      0              1

WIRE NO. 55
            COORDINATES                                 END         NO. OF
   X             Y             Z          RADIUS     CONNECTION     SEGMENTS
 0             .052324       0                         54
 .026162       .052324       0             .004163      0              1

WIRE NO. 56
            COORDINATES                                 END         NO. OF
   X             Y             Z          RADIUS     CONNECTION     SEGMENTS
 .026162       .052324       0                         55
 .052324       .052324       0             .004163      0              1

WIRE NO. 57
            COORDINATES                                 END         NO. OF
   X             Y             Z          RADIUS     CONNECTION     SEGMENTS
 .052324       .052324       0                         56
 .078486       .052324       0             .004163      0              1

WIRE NO. 58
            COORDINATES                                 END         NO. OF
   X             Y             Z          RADIUS     CONNECTION     SEGMENTS
 .078486       .052324       0                         57
 .104648       .052324       0             .004163      0              1

WIRE NO. 59
            COORDINATES                                 END         NO. OF
   X             Y             Z          RADIUS     CONNECTION     SEGMENTS
-.104648       .078486       0                          0
-.078486       .078486       0             .004163      0              1

WIRE NO. 60
            COORDINATES                                 END         NO. OF
   X             Y             Z          RADIUS     CONNECTION     SEGMENTS
-.078486       .078486       0                         59
-.052324       .078486       0             .004163      0              1

WIRE NO. 61
            COORDINATES                                 END         NO. OF
   X             Y             Z          RADIUS     CONNECTION     SEGMENTS
-.052324       .078486       0                         60
-.026162       .078486       0             .004163      0              1

WIRE NO. 62
            COORDINATES                                 END         NO. OF
   X             Y             Z          RADIUS     CONNECTION     SEGMENTS
-.026162       .078486       0                         61
 0             .078486       0             .004163      0              1

WIRE NO. 63
            COORDINATES                                 END         NO. OF
   X             Y             Z          RADIUS     CONNECTION     SEGMENTS
 0             .078486       0                         62
 .026162       .078486       0             .004163      0              1

WIRE NO. 64
            COORDINATES                                 END         NO. OF
   X             Y             Z          RADIUS     CONNECTION     SEGMENTS
 .026162       .078486       0                         63
 .052324       .078486       0             .004163      0              1

WIRE NO. 65
            COORDINATES                                 END         NO. OF
   X             Y             Z          RADIUS     CONNECTION     SEGMENTS
 .052324       .078486       0                         64
 .078486       .078486       0             .004163      0              1

WIRE NO. 66
            COORDINATES                                 END         NO. OF
   X             Y             Z          RADIUS     CONNECTION     SEGMENTS
 .078486       .078486       0                         65
 .104648       .078486       0             .004163      0              1

WIRE NO. 67
            COORDINATES                                 END         NO. OF
   X             Y             Z          RADIUS     CONNECTION     SEGMENTS
-.078486       .104648       0                          0
-.052324       .104648       0             .004163      0              1

WIRE NO. 68
            COORDINATES                                 END         NO. OF
   X             Y             Z          RADIUS     CONNECTION     SEGMENTS
-.052324       .104648       0                         67
-.026162       .104648       0             .004163      0              1

WIRE NO. 69
            COORDINATES                                 END         NO. OF
   X             Y             Z          RADIUS     CONNECTION     SEGMENTS
-.026162       .104648       0                         68
 0             .104648       0             .004163      0              1

WIRE NO. 70
            COORDINATES                                 END         NO. OF
   X             Y             Z          RADIUS     CONNECTION     SEGMENTS
 0             .104648       0                         69
 .026162       .104648       0             .004163      0              1

WIRE NO. 71
            COORDINATES                                 END         NO. OF
   X             Y             Z          RADIUS     CONNECTION     SEGMENTS
 .026162       .104648       0                         70
 .052324       .104648       0             .004163      0              1

WIRE NO. 72
            COORDINATES                                 END         NO. OF
   X             Y             Z          RADIUS     CONNECTION     SEGMENTS
 .052324       .104648       0                         71
 .078486       .104648       0             .004163      0              1

WIRE NO. 73
            COORDINATES                                 END         NO. OF
   X             Y             Z          RADIUS     CONNECTION     SEGMENTS
-.104648      -.078486       0                         -9
-.104648      -.052324       0             .004163     17              1

WIRE NO. 74
            COORDINATES                                 END         NO. OF
   X             Y             Z          RADIUS     CONNECTION     SEGMENTS
-.104648      -.052324       0                        -17
-.104648      -.026162       0             .004163     25              1

WIRE NO. 75
            COORDINATES                                 END         NO. OF
   X             Y             Z          RADIUS     CONNECTION     SEGMENTS
-.104648      -.026162       0                        -25
-.104648       0             0             .004163     -33              1

WIRE NO. 76
            COORDINATES                                 END         NO. OF
   X             Y             Z          RADIUS     CONNECTION     SEGMENTS
-.104648       0             0                         33
-.104648       .026162       0             .004163     43              1

WIRE NO. 77
            COORDINATES                                 END         NO. OF
   X             Y             Z          RADIUS     CONNECTION     SEGMENTS
-.104648       .026162       0                        -43
-.104648       .052324       0             .004163     51              1

WIRE NO. 78
            COORDINATES                                 END         NO. OF
   X             Y             Z          RADIUS     CONNECTION     SEGMENTS
-.104648       .052324       0                        -51
-.104648       .078486       0             .004163     59              1

WIRE NO. 79
            COORDINATES                                 END         NO. OF
   X             Y             Z          RADIUS     CONNECTION     SEGMENTS
-.078486      -.104648       0                         -3
-.078486      -.078486       0             .004163     -9              1

WIRE NO. 80
            COORDINATES                                 END         NO. OF
   X             Y             Z          RADIUS     CONNECTION     SEGMENTS
-.078486      -.078486       0                          9
-.078486      -.052324       0             .004163     -17              1

WIRE NO. 81
            COORDINATES                                 END         NO. OF
   X             Y             Z          RADIUS     CONNECTION     SEGMENTS
-.078486      -.052324       0                         17
-.078486      -.026162       0             .004163     -25              1

WIRE NO. 82
            COORDINATES                                 END         NO. OF
   X             Y             Z          RADIUS     CONNECTION     SEGMENTS
-.078486      -.026162       0                         25
-.078486       0             0             .004163     -34              1

WIRE NO. 83
            COORDINATES                                 END         NO. OF
   X             Y             Z          RADIUS     CONNECTION     SEGMENTS
-.078486       0             0                         34
-.078486       .026162       0             .004163     -43              1

WIRE NO. 84
            COORDINATES                                 END         NO. OF
   X             Y             Z          RADIUS     CONNECTION     SEGMENTS
-.078486       .026162       0                         43
-.078486       .052324       0             .004163     -51              1

WIRE NO. 85
            COORDINATES                                 END         NO. OF
   X             Y             Z          RADIUS     CONNECTION     SEGMENTS
-.078486       .052324       0                         51
-.078486       .078486       0             .004163     -59              1

WIRE NO. 86
            COORDINATES                                 END         NO. OF
   X             Y             Z          RADIUS     CONNECTION     SEGMENTS
-.078486       .078486       0                         59
-.078486       .104648       0             .004163     67              1

WIRE NO. 87
            COORDINATES                                 END         NO. OF
   X             Y             Z          RADIUS     CONNECTION     SEGMENTS
-.052324      -.104648       0                          3
-.052324      -.078486       0             .004163     -10              1

WIRE NO. 88
            COORDINATES                                 END         NO. OF
   X             Y             Z          RADIUS     CONNECTION     SEGMENTS
-.052324      -.078486       0                         10
-.052324      -.052324       0             .004163     -18              1

WIRE NO. 89
            COORDINATES                                 END         NO. OF
   X             Y             Z          RADIUS     CONNECTION     SEGMENTS
-.052324      -.052324       0                         18
-.052324      -.026162       0             .004163     -26              1

WIRE NO. 90
            COORDINATES                                 END         NO. OF
   X             Y             Z          RADIUS     CONNECTION     SEGMENTS
-.052324      -.026162       0                         26
-.052324       0             0             .004163     -35              1

WIRE NO. 91
            COORDINATES                                 END         NO. OF
   X             Y             Z          RADIUS     CONNECTION     SEGMENTS
-.052324       0             0                         35
-.052324       .026162       0             .004163     -44              1

WIRE NO. 92
            COORDINATES                                 END         NO. OF
   X             Y             Z          RADIUS     CONNECTION     SEGMENTS
-.052324       .026162       0                         44
-.052324       .052324       0             .004163     -52              1

WIRE NO. 93
            COORDINATES                                 END         NO. OF
   X             Y             Z          RADIUS     CONNECTION     SEGMENTS
-.052324       .052324       0                         52
-.052324       .078486       0             .004163     -60              1

WIRE NO. 94
            COORDINATES                                 END         NO. OF
   X             Y             Z          RADIUS     CONNECTION     SEGMENTS
-.052324       .078486       0                         60
-.052324       .104648       0             .004163     -67              1

WIRE NO. 95
            COORDINATES                                 END         NO. OF
   X             Y             Z          RADIUS     CONNECTION     SEGMENTS
-.026162      -.104648       0                          4
-.026162      -.078486       0             .004163     -11              1

WIRE NO. 96
            COORDINATES                                 END         NO. OF
   X             Y             Z          RADIUS     CONNECTION     SEGMENTS
-.026162      -.078486       0                         11
-.026162      -.052324       0             .004163     -19              1

WIRE NO. 97
            COORDINATES                                 END         NO. OF
   X             Y             Z          RADIUS     CONNECTION     SEGMENTS
-.026162      -.052324       0                         19
-.026162      -.026162       0             .004163     -27              1

WIRE NO. 98
            COORDINATES                                 END         NO. OF
   X             Y             Z          RADIUS     CONNECTION     SEGMENTS
-.026162      -.026162       0                         27
-.026162       0             0             .004163     -36              1

WIRE NO. 99
            COORDINATES                                 END         NO. OF
   X             Y             Z          RADIUS     CONNECTION     SEGMENTS
-.026162       0             0                         36
-.026162       .026162       0             .004163     -45              1

WIRE NO. 100
            COORDINATES                                 END         NO. OF
   X             Y             Z          RADIUS     CONNECTION     SEGMENTS
-.026162       .026162       0                         45
-.026162       .052324       0             .004163     -53              1

WIRE NO. 101
            COORDINATES                                 END         NO. OF
   X             Y             Z          RADIUS     CONNECTION     SEGMENTS
-.026162       .052324       0                         53
-.026162       .078486       0             .004163     -61              1

WIRE NO. 102
            COORDINATES                                 END         NO. OF
   X             Y             Z          RADIUS     CONNECTION     SEGMENTS
-.026162       .078486       0                         61
-.026162       .104648       0             .004163     -68              1

WIRE NO. 103
            COORDINATES                                 END         NO. OF
   X             Y             Z          RADIUS     CONNECTION     SEGMENTS
 0            -.13081        0                          0
 0            -.104648       0             .004163     -5              1

WIRE NO. 104
            COORDINATES                                 END         NO. OF
   X             Y             Z          RADIUS     CONNECTION     SEGMENTS
 0            -.104648       0                          5
 0            -.078486       0             .004163     -12              1

WIRE NO. 105
            COORDINATES                                 END         NO. OF
   X             Y             Z          RADIUS     CONNECTION     SEGMENTS
 0            -.078486       0                         12
 0            -.052324       0             .004163     -20              1

WIRE NO. 106
            COORDINATES                                 END         NO. OF
   X             Y             Z          RADIUS     CONNECTION     SEGMENTS
 0            -.052324       0                         20
 0            -.026162       0             .004163     -28              1

WIRE NO. 107
            COORDINATES                                 END         NO. OF
   X             Y             Z          RADIUS     CONNECTION     SEGMENTS
 0            -.026162       0                         28
 0             0             0             .004163     -37              1

WIRE NO. 108
            COORDINATES                                 END         NO. OF
   X             Y             Z          RADIUS     CONNECTION     SEGMENTS
 0             0             0                         37
 0             .026162       0             .004163     -46              1

WIRE NO. 109
            COORDINATES                                 END         NO. OF
   X             Y             Z          RADIUS     CONNECTION     SEGMENTS
 0             .026162       0                         46
 0             .052324       0             .004163     -54              1

WIRE NO. 110
            COORDINATES                                 END         NO. OF
   X             Y             Z          RADIUS     CONNECTION     SEGMENTS
 0             .052324       0                         54
 0             .078486       0             .004163     -62              1

WIRE NO. 111
            COORDINATES                                 END         NO. OF
   X             Y             Z          RADIUS     CONNECTION     SEGMENTS
 0             .078486       0                         62
 0             .104648       0             .004163     -69              1

WIRE NO. 112
            COORDINATES                                 END         NO. OF
   X             Y             Z          RADIUS     CONNECTION     SEGMENTS
 0             .104648       0                         69
 0             .13081        0             .004163      0              1

WIRE NO. 113
            COORDINATES                                 END         NO. OF
   X             Y             Z          RADIUS     CONNECTION     SEGMENTS
 .026162      -.104648       0                          6
 .026162      -.078486       0             .004163     -13              1

WIRE NO. 114
            COORDINATES                                 END         NO. OF
   X             Y             Z          RADIUS     CONNECTION     SEGMENTS
 .026162      -.078486       0                         13
 .026162      -.052324       0             .004163     -21              1

WIRE NO. 115
            COORDINATES                                 END         NO. OF
   X             Y             Z          RADIUS     CONNECTION     SEGMENTS
 .026162      -.052324       0                         21
 .026162      -.026162       0             .004163     -29              1

WIRE NO. 116
            COORDINATES                                 END         NO. OF
   X             Y             Z          RADIUS     CONNECTION     SEGMENTS
 .026162      -.026162       0                         29
 .026162       0             0             .004163     -38              1

WIRE NO. 117
            COORDINATES                                 END         NO. OF
   X             Y             Z          RADIUS     CONNECTION     SEGMENTS
 .026162       0             0                         38
 .026162       .026162       0             .004163     -47              1

WIRE NO. 118
            COORDINATES                                 END         NO. OF
   X             Y             Z          RADIUS     CONNECTION     SEGMENTS
 .026162       .026162       0                         47
 .026162       .052324       0             .004163     -55              1

WIRE NO. 119
            COORDINATES                                 END         NO. OF
   X             Y             Z          RADIUS     CONNECTION     SEGMENTS
 .026162       .052324       0                         55
 .026162       .078486       0             .004163     -63              1

WIRE NO. 120
            COORDINATES                                 END         NO. OF
   X             Y             Z          RADIUS     CONNECTION     SEGMENTS
 .026162       .078486       0                         63
 .026162       .104648       0             .004163     -70              1

WIRE NO. 121
            COORDINATES                                 END         NO. OF
   X             Y             Z          RADIUS     CONNECTION     SEGMENTS
 .052324      -.104648       0                          7
 .052324      -.078486       0             .004163     -14              1

WIRE NO. 122
            COORDINATES                                 END         NO. OF
   X             Y             Z          RADIUS     CONNECTION     SEGMENTS
 .052324      -.078486       0                         14
 .052324      -.052324       0             .004163     -22              1

WIRE NO. 123
            COORDINATES                                 END         NO. OF
   X             Y             Z          RADIUS     CONNECTION     SEGMENTS
 .052324      -.052324       0                         22
 .052324      -.026162       0             .004163     -30              1

WIRE NO. 124
            COORDINATES                                 END         NO. OF
   X             Y             Z          RADIUS     CONNECTION     SEGMENTS
 .052324      -.026162       0                         30
 .052324       0             0             .004163      1              1

WIRE NO. 125
            COORDINATES                                 END         NO. OF
   X             Y             Z          RADIUS     CONNECTION     SEGMENTS
 .052324       0             0                         -1
 .052324       .026162       0             .004163     -48              1

WIRE NO. 126
            COORDINATES                                 END         NO. OF
   X             Y             Z          RADIUS     CONNECTION     SEGMENTS
 .052324       .026162       0                         48
 .052324       .052324       0             .004163     -56              1

WIRE NO. 127
            COORDINATES                                 END         NO. OF
   X             Y             Z          RADIUS     CONNECTION     SEGMENTS
 .052324       .052324       0                         56
 .052324       .078486       0             .004163     -64              1

WIRE NO. 128
            COORDINATES                                 END         NO. OF
   X             Y             Z          RADIUS     CONNECTION     SEGMENTS
 .052324       .078486       0                         64
 .052324       .104648       0             .004163     -71              1

WIRE NO. 129
            COORDINATES                                 END         NO. OF
   X             Y             Z          RADIUS     CONNECTION     SEGMENTS
 .078486      -.104648       0                          8
 .078486      -.078486       0             .004163     -15              1

WIRE NO. 130
            COORDINATES                                 END         NO. OF
   X             Y             Z          RADIUS     CONNECTION     SEGMENTS
 .078486      -.078486       0                         15
 .078486      -.052324       0             .004163     -23              1

WIRE NO. 131
            COORDINATES                                 END         NO. OF
   X             Y             Z          RADIUS     CONNECTION     SEGMENTS
 .078486      -.052324       0                         23
 .078486      -.026162       0             .004163     -31              1

WIRE NO. 132
            COORDINATES                                 END         NO. OF
   X             Y             Z          RADIUS     CONNECTION     SEGMENTS
 .078486      -.026162       0                         31
 .078486       0             0             .004163     -40              1

WIRE NO. 133
            COORDINATES                                 END         NO. OF
   X             Y             Z          RADIUS     CONNECTION     SEGMENTS
 .078486       0             0                         40
 .078486       .026162       0             .004163     -49              1

WIRE NO. 134
            COORDINATES                                 END         NO. OF
   X             Y             Z          RADIUS     CONNECTION     SEGMENTS
 .078486       .026162       0                         49
 .078486       .052324       0             .004163     -57              1

WIRE NO. 135
            COORDINATES                                 END         NO. OF
   X             Y             Z          RADIUS     CONNECTION     SEGMENTS
 .078486       .052324       0                         57
 .078486       .078486       0             .004163     -65              1

WIRE NO. 136
            COORDINATES                                 END         NO. OF
   X             Y             Z          RADIUS     CONNECTION     SEGMENTS
 .078486       .078486       0                         65
 .078486       .104648       0             .004163     -72              1

WIRE NO. 137
            COORDINATES                                 END         NO. OF
   X             Y             Z          RADIUS     CONNECTION     SEGMENTS
 .104648      -.078486       0                         16
 .104648      -.052324       0             .004163     -24              1

WIRE NO. 138
            COORDINATES                                 END         NO. OF
   X             Y             Z          RADIUS     CONNECTION     SEGMENTS
 .104648      -.052324       0                         24
 .104648      -.026162       0             .004163     -32              1

WIRE NO. 139
            COORDINATES                                 END         NO. OF
   X             Y             Z          RADIUS     CONNECTION     SEGMENTS
 .104648      -.026162       0                         32
 .104648       0             0             .004163     -41              1

WIRE NO. 140
            COORDINATES                                 END         NO. OF
   X             Y             Z          RADIUS     CONNECTION     SEGMENTS
 .104648       0             0                         41
 .104648       .026162       0             .004163     -50              1

WIRE NO. 141
            COORDINATES                                 END         NO. OF
   X             Y             Z          RADIUS     CONNECTION     SEGMENTS
 .104648       .026162       0                         50
 .104648       .052324       0             .004163     -58              1

WIRE NO. 142
            COORDINATES                                 END         NO. OF
   X             Y             Z          RADIUS     CONNECTION     SEGMENTS
 .104648       .052324       0                         58
 .104648       .078486       0             .004163     -66              1

WIRE NO. 143
            COORDINATES                                 END         NO. OF
   X             Y             Z          RADIUS     CONNECTION     SEGMENTS
 0             .13081        .0254                      0
 .025519       .128297       .0254         .004042      0              1

WIRE NO. 144
            COORDINATES                                 END         NO. OF
   X             Y             Z          RADIUS     CONNECTION     SEGMENTS
 .025519       .128297       .0254                    143
 .050058       .120853       .0254         .004042      0              1

WIRE NO. 145
            COORDINATES                                 END         NO. OF
   X             Y             Z          RADIUS     CONNECTION     SEGMENTS
 .050058       .120853       .0254                    144
 .072674       .108765       .0254         .004042      0              1

WIRE NO. 146
            COORDINATES                                 END         NO. OF
   X             Y             Z          RADIUS     CONNECTION     SEGMENTS
 .072674       .108765       .0254                    145
 .092496       .092496       .0254         .004042      0              1

WIRE NO. 147
            COORDINATES                                 END         NO. OF
   X             Y             Z          RADIUS     CONNECTION     SEGMENTS
 .092496       .092496       .0254                    146
 .108765       .072674       .0254         .004042      0              1

WIRE NO. 148
            COORDINATES                                 END         NO. OF
   X             Y             Z          RADIUS     CONNECTION     SEGMENTS
 .108765       .072674       .0254                    147
 .120853       .050058       .0254         .004042      0              1

WIRE NO. 149
            COORDINATES                                 END         NO. OF
   X             Y             Z          RADIUS     CONNECTION     SEGMENTS
 .120853       .050058       .0254                    148
 .128297       .025519       .0254         .004042      0              1

WIRE NO. 150
            COORDINATES                                 END         NO. OF
   X             Y             Z          RADIUS     CONNECTION     SEGMENTS
 .128297       .025519       .0254                    149
 .13081        0             .0254         .004042      0              1

WIRE NO. 151
            COORDINATES                                 END         NO. OF
   X             Y             Z          RADIUS     CONNECTION     SEGMENTS
 .13081        0             .0254                    150
 .128297      -.025519       .0254         .004042      0              1

WIRE NO. 152
            COORDINATES                                 END         NO. OF
   X             Y             Z          RADIUS     CONNECTION     SEGMENTS
 .128297      -.025519       .0254                    151
 .120853      -.050058       .0254         .004042      0              1

WIRE NO. 153
            COORDINATES                                 END         NO. OF
   X             Y             Z          RADIUS     CONNECTION     SEGMENTS
 .120853      -.050058       .0254                    152
 .108765      -.072674       .0254         .004042      0              1

WIRE NO. 154
            COORDINATES                                 END         NO. OF
   X             Y             Z          RADIUS     CONNECTION     SEGMENTS
 .108765      -.072674       .0254                    153
 .092496      -.092496       .0254         .004042      0              1

WIRE NO. 155
            COORDINATES                                 END         NO. OF
   X             Y             Z          RADIUS     CONNECTION     SEGMENTS
 .092496      -.092496       .0254                    154
 .072674      -.108765       .0254         .004042      0              1

WIRE NO. 156
            COORDINATES                                 END         NO. OF
   X             Y             Z          RADIUS     CONNECTION     SEGMENTS
 .072674      -.108765       .0254                    155
 .050058      -.120853       .0254         .004042      0              1

WIRE NO. 157
            COORDINATES                                 END         NO. OF
   X             Y             Z          RADIUS     CONNECTION     SEGMENTS
 .050058      -.120853       .0254                    156
 .025519      -.128297       .0254         .004042      0              1

WIRE NO. 158
            COORDINATES                                 END         NO. OF
   X             Y             Z          RADIUS     CONNECTION     SEGMENTS
 .025519      -.128297       .0254                    157
 0            -.13081        .0254         .004042      0              1

WIRE NO. 159
            COORDINATES                                 END         NO. OF
   X             Y             Z          RADIUS     CONNECTION     SEGMENTS
 0            -.13081        .0254                    158
-.025519      -.128297       .0254         .004042      0              1

WIRE NO. 160
            COORDINATES                                 END         NO. OF
   X             Y             Z          RADIUS     CONNECTION     SEGMENTS
-.025519      -.128297       .0254                    159
-.050058      -.120853       .0254         .004042      0              1

WIRE NO. 161
            COORDINATES                                 END         NO. OF
   X             Y             Z          RADIUS     CONNECTION     SEGMENTS
-.050058      -.120853       .0254                    160
-.072674      -.108765       .0254         .004042      0              1

WIRE NO. 162
            COORDINATES                                 END         NO. OF
   X             Y             Z          RADIUS     CONNECTION     SEGMENTS
-.072674      -.108765       .0254                    161
-.092496      -.092496       .0254         .004042      0              1

WIRE NO. 163
            COORDINATES                                 END         NO. OF
   X             Y             Z          RADIUS     CONNECTION     SEGMENTS
-.092496      -.092496       .0254                    162
-.108765      -.072674       .0254         .004042      0              1

WIRE NO. 164
            COORDINATES                                 END         NO. OF
   X             Y             Z          RADIUS     CONNECTION     SEGMENTS
-.108765      -.072674       .0254                    163
-.120853      -.050058       .0254         .004042      0              1

WIRE NO. 165
            COORDINATES                                 END         NO. OF
   X             Y             Z          RADIUS     CONNECTION     SEGMENTS
-.120853      -.050058       .0254                    164
-.128297      -.025519       .0254         .004042      0              1

WIRE NO. 166
            COORDINATES                                 END         NO. OF
   X             Y             Z          RADIUS     CONNECTION     SEGMENTS
-.128297      -.025519       .0254                    165
-.13081        0             .0254         .004042      0              1

WIRE NO. 167
            COORDINATES                                 END         NO. OF
   X             Y             Z          RADIUS     CONNECTION     SEGMENTS
-.13081        0             .0254                    166
-.128297       .025519       .0254         .004042      0              1

WIRE NO. 168
            COORDINATES                                 END         NO. OF
   X             Y             Z          RADIUS     CONNECTION     SEGMENTS
-.128297       .025519       .0254                    167
-.120853       .050058       .0254         .004042      0              1

WIRE NO. 169
            COORDINATES                                 END         NO. OF
   X             Y             Z          RADIUS     CONNECTION     SEGMENTS
-.120853       .050058       .0254                    168
-.108765       .072674       .0254         .004042      0              1

WIRE NO. 170
            COORDINATES                                 END         NO. OF
   X             Y             Z          RADIUS     CONNECTION     SEGMENTS
-.108765       .072674       .0254                    169
-.092496       .092496       .0254         .004042      0              1

WIRE NO. 171
            COORDINATES                                 END         NO. OF
   X             Y             Z          RADIUS     CONNECTION     SEGMENTS
-.092496       .092496       .0254                    170
-.072674       .108765       .0254         .004042      0              1

WIRE NO. 172
            COORDINATES                                 END         NO. OF
   X             Y             Z          RADIUS     CONNECTION     SEGMENTS
-.072674       .108765       .0254                    171
-.050058       .120853       .0254         .004042      0              1

WIRE NO. 173
            COORDINATES                                 END         NO. OF
   X             Y             Z          RADIUS     CONNECTION     SEGMENTS
-.050058       .120853       .0254                    172
-.025519       .128297       .0254         .004042      0              1

WIRE NO. 174
            COORDINATES                                 END         NO. OF
   X             Y             Z          RADIUS     CONNECTION     SEGMENTS
-.025519       .128297       .0254                    173
 0             .13081        .0254         .004042     143              1

WIRE NO. 175
            COORDINATES                                 END         NO. OF
   X             Y             Z          RADIUS     CONNECTION     SEGMENTS
 0             .13081        .0508                      0
 .025519       .128297       .0508         .004042      0              1

WIRE NO. 176
            COORDINATES                                 END         NO. OF
   X             Y             Z          RADIUS     CONNECTION     SEGMENTS
 .025519       .128297       .0508                    175
 .050058       .120853       .0508         .004042      0              1

WIRE NO. 177
            COORDINATES                                 END         NO. OF
   X             Y             Z          RADIUS     CONNECTION     SEGMENTS
 .050058       .120853       .0508                    176
 .072674       .108765       .0508         .004042      0              1

WIRE NO. 178
            COORDINATES                                 END         NO. OF
   X             Y             Z          RADIUS     CONNECTION     SEGMENTS
 .072674       .108765       .0508                    177
 .092496       .092496       .0508         .004042      0              1

WIRE NO. 179
            COORDINATES                                 END         NO. OF
   X             Y             Z          RADIUS     CONNECTION     SEGMENTS
 .092496       .092496       .0508                    178
 .108765       .072674       .0508         .004042      0              1

WIRE NO. 180
            COORDINATES                                 END         NO. OF
   X             Y             Z          RADIUS     CONNECTION     SEGMENTS
 .108765       .072674       .0508                    179
 .120853       .050058       .0508         .004042      0              1

WIRE NO. 181
            COORDINATES                                 END         NO. OF
   X             Y             Z          RADIUS     CONNECTION     SEGMENTS
 .120853       .050058       .0508                    180
 .128297       .025519       .0508         .004042      0              1

WIRE NO. 182
            COORDINATES                                 END         NO. OF
   X             Y             Z          RADIUS     CONNECTION     SEGMENTS
 .128297       .025519       .0508                    181
 .13081        0             .0508         .004042      0              1

WIRE NO. 183
            COORDINATES                                 END         NO. OF
   X             Y             Z          RADIUS     CONNECTION     SEGMENTS
 .13081        0             .0508                    182
 .128297      -.025519       .0508         .004042      0              1

WIRE NO. 184
            COORDINATES                                 END         NO. OF
   X             Y             Z          RADIUS     CONNECTION     SEGMENTS
 .128297      -.025519       .0508                    183
 .120853      -.050058       .0508         .004042      0              1

WIRE NO. 185
            COORDINATES                                 END         NO. OF
   X             Y             Z          RADIUS     CONNECTION     SEGMENTS
 .120853      -.050058       .0508                    184
 .108765      -.072674       .0508         .004042      0              1

WIRE NO. 186
            COORDINATES                                 END         NO. OF
   X             Y             Z          RADIUS     CONNECTION     SEGMENTS
 .108765      -.072674       .0508                    185
 .092496      -.092496       .0508         .004042      0              1

WIRE NO. 187
            COORDINATES                                 END         NO. OF
   X             Y             Z          RADIUS     CONNECTION     SEGMENTS
 .092496      -.092496       .0508                    186
 .072674      -.108765       .0508         .004042      0              1

WIRE NO. 188
            COORDINATES                                 END         NO. OF
   X             Y             Z          RADIUS     CONNECTION     SEGMENTS
 .072674      -.108765       .0508                    187
 .050058      -.120853       .0508         .004042      0              1

WIRE NO. 189
            COORDINATES                                 END         NO. OF
   X             Y             Z          RADIUS     CONNECTION     SEGMENTS
 .050058      -.120853       .0508                    188
 .025519      -.128297       .0508         .004042      0              1

WIRE NO. 190
            COORDINATES                                 END         NO. OF
   X             Y             Z          RADIUS     CONNECTION     SEGMENTS
 .025519      -.128297       .0508                    189
 0            -.13081        .0508         .004042      0              1

WIRE NO. 191
            COORDINATES                                 END         NO. OF
   X             Y             Z          RADIUS     CONNECTION     SEGMENTS
 0            -.13081        .0508                    190
-.025519      -.128297       .0508         .004042      0              1

WIRE NO. 192
            COORDINATES                                 END         NO. OF
   X             Y             Z          RADIUS     CONNECTION     SEGMENTS
-.025519      -.128297       .0508                    191
-.050058      -.120853       .0508         .004042      0              1

WIRE NO. 193
            COORDINATES                                 END         NO. OF
   X             Y             Z          RADIUS     CONNECTION     SEGMENTS
-.050058      -.120853       .0508                    192
-.072674      -.108765       .0508         .004042      0              1

WIRE NO. 194
            COORDINATES                                 END         NO. OF
   X             Y             Z          RADIUS     CONNECTION     SEGMENTS
-.072674      -.108765       .0508                    193
-.092496      -.092496       .0508         .004042      0              1

WIRE NO. 195
            COORDINATES                                 END         NO. OF
   X             Y             Z          RADIUS     CONNECTION     SEGMENTS
-.092496      -.092496       .0508                    194
-.108765      -.072674       .0508         .004042      0              1

WIRE NO. 196
            COORDINATES                                 END         NO. OF
   X             Y             Z          RADIUS     CONNECTION     SEGMENTS
-.108765      -.072674       .0508                    195
-.120853      -.050058       .0508         .004042      0              1

WIRE NO. 197
            COORDINATES                                 END         NO. OF
   X             Y             Z          RADIUS     CONNECTION     SEGMENTS
-.120853      -.050058       .0508                    196
-.128297      -.025519       .0508         .004042      0              1

WIRE NO. 198
            COORDINATES                                 END         NO. OF
   X             Y             Z          RADIUS     CONNECTION     SEGMENTS
-.128297      -.025519       .0508                    197
-.13081        0             .0508         .004042      0              1

WIRE NO. 199
            COORDINATES                                 END         NO. OF
   X             Y             Z          RADIUS     CONNECTION     SEGMENTS
-.13081        0             .0508                    198
-.128297       .025519       .0508         .004042      0              1

WIRE NO. 200
            COORDINATES                                 END         NO. OF
   X             Y             Z          RADIUS     CONNECTION     SEGMENTS
-.128297       .025519       .0508                    199
-.120853       .050058       .0508         .004042      0              1

WIRE NO. 201
            COORDINATES                                 END         NO. OF
   X             Y             Z          RADIUS     CONNECTION     SEGMENTS
-.120853       .050058       .0508                    200
-.108765       .072674       .0508         .004042      0              1

WIRE NO. 202
            COORDINATES                                 END         NO. OF
   X             Y             Z          RADIUS     CONNECTION     SEGMENTS
-.108765       .072674       .0508                    201
-.092496       .092496       .0508         .004042      0              1

WIRE NO. 203
            COORDINATES                                 END         NO. OF
   X             Y             Z          RADIUS     CONNECTION     SEGMENTS
-.092496       .092496       .0508                    202
-.072674       .108765       .0508         .004042      0              1

WIRE NO. 204
            COORDINATES                                 END         NO. OF
   X             Y             Z          RADIUS     CONNECTION     SEGMENTS
-.072674       .108765       .0508                    203
-.050058       .120853       .0508         .004042      0              1

WIRE NO. 205
            COORDINATES                                 END         NO. OF
   X             Y             Z          RADIUS     CONNECTION     SEGMENTS
-.050058       .120853       .0508                    204
-.025519       .128297       .0508         .004042      0              1

WIRE NO. 206
            COORDINATES                                 END         NO. OF
   X             Y             Z          RADIUS     CONNECTION     SEGMENTS
-.025519       .128297       .0508                    205
 0             .13081        .0508         .004042     175              1

WIRE NO. 207
            COORDINATES                                 END         NO. OF
   X             Y             Z          RADIUS     CONNECTION     SEGMENTS
 0             .13081        .0762                      0
 .025519       .128297       .0762         .004042      0              1

WIRE NO. 208
            COORDINATES                                 END         NO. OF
   X             Y             Z          RADIUS     CONNECTION     SEGMENTS
 .025519       .128297       .0762                    207
 .050058       .120853       .0762         .004042      0              1

WIRE NO. 209
            COORDINATES                                 END         NO. OF
   X             Y             Z          RADIUS     CONNECTION     SEGMENTS
 .050058       .120853       .0762                    208
 .072674       .108765       .0762         .004042      0              1

WIRE NO. 210
            COORDINATES                                 END         NO. OF
   X             Y             Z          RADIUS     CONNECTION     SEGMENTS
 .072674       .108765       .0762                    209
 .092496       .092496       .0762         .004042      0              1

WIRE NO. 211
            COORDINATES                                 END         NO. OF
   X             Y             Z          RADIUS     CONNECTION     SEGMENTS
 .092496       .092496       .0762                    210
 .108765       .072674       .0762         .004042      0              1

WIRE NO. 212
            COORDINATES                                 END         NO. OF
   X             Y             Z          RADIUS     CONNECTION     SEGMENTS
 .108765       .072674       .0762                    211
 .120853       .050058       .0762         .004042      0              1

WIRE NO. 213
            COORDINATES                                 END         NO. OF
   X             Y             Z          RADIUS     CONNECTION     SEGMENTS
 .120853       .050058       .0762                    212
 .128297       .025519       .0762         .004042      0              1

WIRE NO. 214
            COORDINATES                                 END         NO. OF
   X             Y             Z          RADIUS     CONNECTION     SEGMENTS
 .128297       .025519       .0762                    213
 .13081        0             .0762         .004042      0              1

WIRE NO. 215
            COORDINATES                                 END         NO. OF
   X             Y             Z          RADIUS     CONNECTION     SEGMENTS
 .13081        0             .0762                    214
 .128297      -.025519       .0762         .004042      0              1

WIRE NO. 216
            COORDINATES                                 END         NO. OF
   X             Y             Z          RADIUS     CONNECTION     SEGMENTS
 .128297      -.025519       .0762                    215
 .120853      -.050058       .0762         .004042      0              1

WIRE NO. 217
            COORDINATES                                 END         NO. OF
   X             Y             Z          RADIUS     CONNECTION     SEGMENTS
 .120853      -.050058       .0762                    216
 .108765      -.072674       .0762         .004042      0              1

WIRE NO. 218
            COORDINATES                                 END         NO. OF
   X             Y             Z          RADIUS     CONNECTION     SEGMENTS
 .108765      -.072674       .0762                    217
 .092496      -.092496       .0762         .004042      0              1

WIRE NO. 219
            COORDINATES                                 END         NO. OF
   X             Y             Z          RADIUS     CONNECTION     SEGMENTS
 .092496      -.092496       .0762                    218
 .072674      -.108765       .0762         .004042      0              1

WIRE NO. 220
            COORDINATES                                 END         NO. OF
   X             Y             Z          RADIUS     CONNECTION     SEGMENTS
 .072674      -.108765       .0762                    219
 .050058      -.120853       .0762         .004042      0              1

WIRE NO. 221
            COORDINATES                                 END         NO. OF
   X             Y             Z          RADIUS     CONNECTION     SEGMENTS
 .050058      -.120853       .0762                    220
 .025519      -.128297       .0762         .004042      0              1

WIRE NO. 222
            COORDINATES                                 END         NO. OF
   X             Y             Z          RADIUS     CONNECTION     SEGMENTS
 .025519      -.128297       .0762                    221
 0            -.13081        .0762         .004042      0              1

WIRE NO. 223
            COORDINATES                                 END         NO. OF
   X             Y             Z          RADIUS     CONNECTION     SEGMENTS
 0            -.13081        .0762                    222
-.025519      -.128297       .0762         .004042      0              1

WIRE NO. 224
            COORDINATES                                 END         NO. OF
   X             Y             Z          RADIUS     CONNECTION     SEGMENTS
-.025519      -.128297       .0762                    223
-.050058      -.120853       .0762         .004042      0              1

WIRE NO. 225
            COORDINATES                                 END         NO. OF
   X             Y             Z          RADIUS     CONNECTION     SEGMENTS
-.050058      -.120853       .0762                    224
-.072674      -.108765       .0762         .004042      0              1

WIRE NO. 226
            COORDINATES                                 END         NO. OF
   X             Y             Z          RADIUS     CONNECTION     SEGMENTS
-.072674      -.108765       .0762                    225
-.092496      -.092496       .0762         .004042      0              1

WIRE NO. 227
            COORDINATES                                 END         NO. OF
   X             Y             Z          RADIUS     CONNECTION     SEGMENTS
-.092496      -.092496       .0762                    226
-.108765      -.072674       .0762         .004042      0              1

WIRE NO. 228
            COORDINATES                                 END         NO. OF
   X             Y             Z          RADIUS     CONNECTION     SEGMENTS
-.108765      -.072674       .0762                    227
-.120853      -.050058       .0762         .004042      0              1

WIRE NO. 229
            COORDINATES                                 END         NO. OF
   X             Y             Z          RADIUS     CONNECTION     SEGMENTS
-.120853      -.050058       .0762                    228
-.128297      -.025519       .0762         .004042      0              1

WIRE NO. 230
            COORDINATES                                 END         NO. OF
   X             Y             Z          RADIUS     CONNECTION     SEGMENTS
-.128297      -.025519       .0762                    229
-.13081        0             .0762         .004042      0              1

WIRE NO. 231
            COORDINATES                                 END         NO. OF
   X             Y             Z          RADIUS     CONNECTION     SEGMENTS
-.13081        0             .0762                    230
-.128297       .025519       .0762         .004042      0              1

WIRE NO. 232
            COORDINATES                                 END         NO. OF
   X             Y             Z          RADIUS     CONNECTION     SEGMENTS
-.128297       .025519       .0762                    231
-.120853       .050058       .0762         .004042      0              1

WIRE NO. 233
            COORDINATES                                 END         NO. OF
   X             Y             Z          RADIUS     CONNECTION     SEGMENTS
-.120853       .050058       .0762                    232
-.108765       .072674       .0762         .004042      0              1

WIRE NO. 234
            COORDINATES                                 END         NO. OF
   X             Y             Z          RADIUS     CONNECTION     SEGMENTS
-.108765       .072674       .0762                    233
-.092496       .092496       .0762         .004042      0              1

WIRE NO. 235
            COORDINATES                                 END         NO. OF
   X             Y             Z          RADIUS     CONNECTION     SEGMENTS
-.092496       .092496       .0762                    234
-.072674       .108765       .0762         .004042      0              1

WIRE NO. 236
            COORDINATES                                 END         NO. OF
   X             Y             Z          RADIUS     CONNECTION     SEGMENTS
-.072674       .108765       .0762                    235
-.050058       .120853       .0762         .004042      0              1

WIRE NO. 237
            COORDINATES                                 END         NO. OF
   X             Y             Z          RADIUS     CONNECTION     SEGMENTS
-.050058       .120853       .0762                    236
-.025519       .128297       .0762         .004042      0              1

WIRE NO. 238
            COORDINATES                                 END         NO. OF
   X             Y             Z          RADIUS     CONNECTION     SEGMENTS
-.025519       .128297       .0762                    237
 0             .13081        .0762         .004042     207              1

WIRE NO. 239
            COORDINATES                                 END         NO. OF
   X             Y             Z          RADIUS     CONNECTION     SEGMENTS
 0             .13081        .1016                      0
 .025519       .128297       .1016         .004042      0              1

WIRE NO. 240
            COORDINATES                                 END         NO. OF
   X             Y             Z          RADIUS     CONNECTION     SEGMENTS
 .025519       .128297       .1016                    239
 .050058       .120853       .1016         .004042      0              1

WIRE NO. 241
            COORDINATES                                 END         NO. OF
   X             Y             Z          RADIUS     CONNECTION     SEGMENTS
 .050058       .120853       .1016                    240
 .072674       .108765       .1016         .004042      0              1

WIRE NO. 242
            COORDINATES                                 END         NO. OF
   X             Y             Z          RADIUS     CONNECTION     SEGMENTS
 .072674       .108765       .1016                    241
 .092496       .092496       .1016         .004042      0              1

WIRE NO. 243
            COORDINATES                                 END         NO. OF
   X             Y             Z          RADIUS     CONNECTION     SEGMENTS
 .092496       .092496       .1016                    242
 .108765       .072674       .1016         .004042      0              1

WIRE NO. 244
            COORDINATES                                 END         NO. OF
   X             Y             Z          RADIUS     CONNECTION     SEGMENTS
 .108765       .072674       .1016                    243
 .120853       .050058       .1016         .004042      0              1

WIRE NO. 245
            COORDINATES                                 END         NO. OF
   X             Y             Z          RADIUS     CONNECTION     SEGMENTS
 .120853       .050058       .1016                    244
 .128297       .025519       .1016         .004042      0              1

WIRE NO. 246
            COORDINATES                                 END         NO. OF
   X             Y             Z          RADIUS     CONNECTION     SEGMENTS
 .128297       .025519       .1016                    245
 .13081        0             .1016         .004042      0              1

WIRE NO. 247
            COORDINATES                                 END         NO. OF
   X             Y             Z          RADIUS     CONNECTION     SEGMENTS
 .13081        0             .1016                    246
 .128297      -.025519       .1016         .004042      0              1

WIRE NO. 248
            COORDINATES                                 END         NO. OF
   X             Y             Z          RADIUS     CONNECTION     SEGMENTS
 .128297      -.025519       .1016                    247
 .120853      -.050058       .1016         .004042      0              1

WIRE NO. 249
            COORDINATES                                 END         NO. OF
   X             Y             Z          RADIUS     CONNECTION     SEGMENTS
 .120853      -.050058       .1016                    248
 .108765      -.072674       .1016         .004042      0              1

WIRE NO. 250
            COORDINATES                                 END         NO. OF
   X             Y             Z          RADIUS     CONNECTION     SEGMENTS
 .108765      -.072674       .1016                    249
 .092496      -.092496       .1016         .004042      0              1

WIRE NO. 251
            COORDINATES                                 END         NO. OF
   X             Y             Z          RADIUS     CONNECTION     SEGMENTS
 .092496      -.092496       .1016                    250
 .072674      -.108765       .1016         .004042      0              1

WIRE NO. 252
            COORDINATES                                 END         NO. OF
   X             Y             Z          RADIUS     CONNECTION     SEGMENTS
 .072674      -.108765       .1016                    251
 .050058      -.120853       .1016         .004042      0              1

WIRE NO. 253
            COORDINATES                                 END         NO. OF
   X             Y             Z          RADIUS     CONNECTION     SEGMENTS
 .050058      -.120853       .1016                    252
 .025519      -.128297       .1016         .004042      0              1

WIRE NO. 254
            COORDINATES                                 END         NO. OF
   X             Y             Z          RADIUS     CONNECTION     SEGMENTS
 .025519      -.128297       .1016                    253
 0            -.13081        .1016         .004042      0              1

WIRE NO. 255
            COORDINATES                                 END         NO. OF
   X             Y             Z          RADIUS     CONNECTION     SEGMENTS
 0            -.13081        .1016                    254
-.025519      -.128297       .1016         .004042      0              1

WIRE NO. 256
            COORDINATES                                 END         NO. OF
   X             Y             Z          RADIUS     CONNECTION     SEGMENTS
-.025519      -.128297       .1016                    255
-.050058      -.120853       .1016         .004042      0              1

WIRE NO. 257
            COORDINATES                                 END         NO. OF
   X             Y             Z          RADIUS     CONNECTION     SEGMENTS
-.050058      -.120853       .1016                    256
-.072674      -.108765       .1016         .004042      0              1

WIRE NO. 258
            COORDINATES                                 END         NO. OF
   X             Y             Z          RADIUS     CONNECTION     SEGMENTS
-.072674      -.108765       .1016                    257
-.092496      -.092496       .1016         .004042      0              1

WIRE NO. 259
            COORDINATES                                 END         NO. OF
   X             Y             Z          RADIUS     CONNECTION     SEGMENTS
-.092496      -.092496       .1016                    258
-.108765      -.072674       .1016         .004042      0              1

WIRE NO. 260
            COORDINATES                                 END         NO. OF
   X             Y             Z          RADIUS     CONNECTION     SEGMENTS
-.108765      -.072674       .1016                    259
-.120853      -.050058       .1016         .004042      0              1

WIRE NO. 261
            COORDINATES                                 END         NO. OF
   X             Y             Z          RADIUS     CONNECTION     SEGMENTS
-.120853      -.050058       .1016                    260
-.128297      -.025519       .1016         .004042      0              1

WIRE NO. 262
            COORDINATES                                 END         NO. OF
   X             Y             Z          RADIUS     CONNECTION     SEGMENTS
-.128297      -.025519       .1016                    261
-.13081        0             .1016         .004042      0              1

WIRE NO. 263
            COORDINATES                                 END         NO. OF
   X             Y             Z          RADIUS     CONNECTION     SEGMENTS
-.13081        0             .1016                    262
-.128297       .025519       .1016         .004042      0              1

WIRE NO. 264
            COORDINATES                                 END         NO. OF
   X             Y             Z          RADIUS     CONNECTION     SEGMENTS
-.128297       .025519       .1016                    263
-.120853       .050058       .1016         .004042      0              1

WIRE NO. 265
            COORDINATES                                 END         NO. OF
   X             Y             Z          RADIUS     CONNECTION     SEGMENTS
-.120853       .050058       .1016                    264
-.108765       .072674       .1016         .004042      0              1

WIRE NO. 266
            COORDINATES                                 END         NO. OF
   X             Y             Z          RADIUS     CONNECTION     SEGMENTS
-.108765       .072674       .1016                    265
-.092496       .092496       .1016         .004042      0              1

WIRE NO. 267
            COORDINATES                                 END         NO. OF
   X             Y             Z          RADIUS     CONNECTION     SEGMENTS
-.092496       .092496       .1016                    266
-.072674       .108765       .1016         .004042      0              1

WIRE NO. 268
            COORDINATES                                 END         NO. OF
   X             Y             Z          RADIUS     CONNECTION     SEGMENTS
-.072674       .108765       .1016                    267
-.050058       .120853       .1016         .004042      0              1

WIRE NO. 269
[...]
 59            350          -.825923      -2.350209      1.488768
 60            350          -.847554      -2.814239      1.289791
 61            350          -.868284      -3.340416      1.079527
 62            350          -.891851      -3.926477      .860968 
 63            350          -.922811      -4.568389      .636494 
 64            350          -.966155      -5.259261      .407783 
 65            350          -1.026964     -5.987852      .175775 
 66            350          -1.110093     -6.736724     -.059287 
 67            350          -1.219912     -7.480408     -.297743 
 68            350          -1.360085     -8.184596     -.540301 
 69            350          -1.533358     -8.808132     -.787778 
 70            350          -1.741333     -9.309625     -1.040757
 71            350          -1.984193     -9.658375     -1.299229
 72            350          -2.260345     -9.845041     -1.562209
 73            350          -2.565969     -9.885203     -1.827372
 74            350          -2.894482     -9.813187     -2.090756
 75            350          -3.235983     -9.670572     -2.346584
 76            350          -3.576864     -9.496125     -2.587306
 77            350          -3.899872     -9.320511     -2.803966
 78            350          -4.185058     -9.165201     -2.986968
 79            350          -4.41196      -9.043609     -3.127259
 80            350          -4.562994     -8.962871     -3.217754
 81            350          -4.627261     -8.925487     -3.254711
 82            350          -4.603344     -8.930556     -3.238629
 83            350          -4.499782     -8.974648     -3.174391
 84            350          -4.332984     -9.052383     -3.070586
 85            350          -4.123607     -9.156866     -2.938264
 86            350          -3.8929       -9.280069     -2.789507
 87            350          -3.660086     -9.41327      -2.636169
 88            350          -3.441027     -9.547588     -2.488983
 89            350          -3.247911     -9.674649     -2.357057
 90            350          -3.089547     -9.787319     -2.247697
 91            350          -2.971882     -9.880403     -2.166434
 92            350          -2.898557     -9.951168     -2.117167
 93            350          -2.871365     -9.999567     -2.102331
 94            350          -2.890585     -10.0281      -2.123061
 95            350          -2.955194     -10.04134     -2.179308
 96            350          -3.062957     -10.04534     -2.269924
 97            350          -3.210422     -10.04686     -2.392687
 98            350          -3.392834     -10.05281     -2.5443  
 99            350          -3.604        -10.06979     -2.720362
 100           350          -3.836149     -10.1038      -2.915347
 101           350          -4.079851     -10.16013     -3.122621
 102           350          -4.324085     -10.24341     -3.33454 
 103           350          -4.556576     -10.35766     -3.542677
 104           350          -4.764503     -10.50649     -3.738232
 105           350          -4.935599     -10.69323     -3.912616
 106           350          -5.05957      -10.92117     -4.0582  
 107           350          -5.129511     -11.19374     -4.169101
 108           350          -5.142962     -11.51471     -4.241857
 109           350          -5.102228     -11.88843     -4.27583 
 110           350          -5.013868     -12.32002     -4.273223
 111           350          -4.887527     -12.81565     -4.238703
 112           350          -4.734485     -13.38278     -4.178746
 113           350          -4.566315     -14.03041     -4.100844
 114           350          -4.393868     -14.76934     -4.012765
 115           350          -4.226675     -15.61208     -3.921943
 116           350          -4.072687     -16.5722      -3.835059
 117           350          -3.938256     -17.66169     -3.757794
 118           350          -3.828257     -18.88314     -3.69472 
 119           350          -3.746243     -20.20916     -3.649274
 120           350          -3.694619     -21.53458     -3.623785
 121           350          -3.674769     -22.60123     -3.619514
 122           350          -3.687148     -23.0104      -3.636689
 123           350          -3.731319     -22.5385      -3.674536
 124           350          -3.805957     -21.41543     -3.731296
 125           350          -3.908802     -20.04089     -3.804249
 126           350          -4.036594     -18.67233     -3.889753
 127           350          -4.185001     -17.41496     -3.98332 
 128           350          -4.34857      -16.29695     -4.079765
 129           350          -4.520736     -15.31678     -4.17344 
 130           350          -4.69395      -14.46363     -4.258573
 131           350          -4.859965     -13.72505     -4.3297  
 132           350          -5.010326     -13.08951     -4.382155
 133           350          -5.137056     -12.54719     -4.41255 
 134           350          -5.233467     -12.08992     -4.41916 
 135           350          -5.294961     -11.71104     -4.402127
 136           350          -5.319634     -11.40518     -4.363447
 137           350          -5.30853      -11.16807     -4.306736
 138           350          -5.265462     -10.99632     -4.236845
 139           350          -5.196463     -10.88734     -4.159385
 140           350          -5.109016     -10.83926     -4.080271
 141           350          -5.011245     -10.85082     -4.005332
 142           350          -4.911219     -10.92135     -3.940023
 143           350          -4.816441     -11.05078     -3.889256
 144           350          -4.733558     -11.23963     -3.857308
 145           350          -4.668235     -11.48905     -3.847816
 146           350          -4.625159     -11.80092     -3.863809
 147           350          -4.608127     -12.17792     -3.907774
 148           350          -4.620164     -12.6237      -3.981727
 149           350          -4.663663     -13.14312     -4.087292
 150           350          -4.740514     -13.74253     -4.22577 
 151           350          -4.852225     -14.43024     -4.398196
 152           350          -5.000026     -15.21714     -4.605394
 153           350          -5.184955     -16.11756     -4.848004
 154           350          -5.40793      -17.15061     -5.1265  
 155           350          -5.669801     -18.34191     -5.441192
 156           350          -5.971392     -19.72593     -5.792192
 157           350          -6.313523     -21.34771     -6.179358
 158           350          -6.697006     -23.25868     -6.602193
 159           350          -7.122619     -25.47999     -7.059684
 160           350          -7.591033     -27.82339     -7.55006 
 161           350          -8.102673     -29.38315     -8.070454
 162           350          -8.657482     -28.88026     -8.616419
 163           350          -9.25452      -26.94963     -9.181304
 164           350          -9.891334     -24.87034     -9.75548 
 165           350          -10.56297     -23.06584     -10.32552
 166           350          -11.26048     -21.56702     -10.87354
 167           350          -11.9689      -20.32658     -11.3772 
 168           350          -12.66477     -19.29506     -11.81095
 169           350          -13.314       -18.43325     -12.14904
 170           350          -13.8719      -17.71179     -12.3703 
 171           350          -14.28825     -17.10885     -12.46318
 172           350          -14.51912     -16.60814     -12.42892
 173           350          -14.54206     -16.19744     -12.28105
 174           350          -14.36542     -15.86755     -12.04156
 175           350          -14.02462     -15.61159     -11.73572
 176           350          -13.56831     -15.42451     -11.38768
 177           350          -13.04412     -15.30274     -11.01792
 178           350          -12.49061     -15.24401     -10.64236
 179           350          -11.93529     -15.2472      -10.2726 
 180           350          -11.39608     -15.31228     -9.916644
 0             360           9.868025      11.16727      13.57635
 1             360           9.833917      11.16603      13.56115
 2             360           9.780417      11.14982      13.52917
 3             360           9.707072      11.11858      13.48022
 4             360           9.613339      11.07218      13.41403
 5             360           9.498574      11.01041      13.33025
 6             360           9.362024      10.93301      13.22847
 7             360           9.202821      10.83962      13.10818
 8             360           9.01996       10.72982      12.9688 
 9             360           8.812296      10.60312      12.80967
 10            360           8.578515      10.45892      12.63001
 11            360           8.317118      10.29656      12.42895
 12            360           8.026388      10.11526      12.20552
 13            360           7.704359      9.914148      11.95861
 14            360           7.34877       9.692236      11.68699
 15            360           6.957011      9.448413      11.38927
 16            360           6.526046      9.181426      11.0639 
 17            360           6.052328      8.88987       10.70914
 18            360           5.531673      8.572163      10.32304
 19            360           4.959097      8.226522      9.903406
 20            360           4.3286        7.850933      9.447785
 21            360           3.632866      7.443117      8.953402
 22            360           2.862837      7.000482      8.417135
 23            360           2.007114      6.520071      7.835476
 24            360           1.051072      5.998497      7.204497
 25            360          -.024459       5.431863      6.519837
 26            360          -1.245219      4.81567       5.776742
 27            360          -2.646636      4.144711      4.970218
 28            360          -4.278576      3.412961      4.095397
 29            360          -6.211569      2.613478      3.148364
 30            360          -8.538434      1.738382      2.12786 
 31            360          -11.32416      .779013       1.038682
 32            360          -14.22257     -.273405      -.101905 
 33            360          -15.34231     -1.425968     -1.253193
 34            360          -13.52594     -2.679634     -2.33618 
 35            360          -10.99688     -4.01896      -3.225181
 36            360          -8.846602     -5.390641     -3.77326 
 37            360          -7.143556     -6.667722     -3.888825
 38            360          -5.796256     -7.624152     -3.604438
 39            360          -4.721752     -8.008545     -3.051062
 40            360          -3.860242     -7.747935     -2.372562
 41            360          -3.169593     -7.025779     -1.67275 
 42            360          -2.619552     -6.102831     -1.010647
 43            360          -2.187708     -5.160762     -.414345 
 44            360          -1.856831     -4.288613      .105605 
 45            360          -1.613099     -3.519873      .54763  
 46            360          -1.444872     -2.861981      .914419 
 47            360          -1.34182      -2.311801      1.210513
 48            360          -1.294266     -1.862646      1.441136
 49            360          -1.292699     -1.507229      1.61166 
 50            360          -1.327432     -1.238819      1.7274  
 51            360          -1.38841      -1.051612      1.793553
 52            360          -1.465213     -.940786       1.815212
 53            360          -1.547285     -.902432       1.797399
 54            360          -1.624418     -.933442       1.745097
 55            360          -1.687464     -1.031387      1.663252
 56            360          -1.729168     -1.194399      1.556742
 57            360          -1.744962     -1.421054      1.430311
 58            360          -1.733488     -1.710246      1.288448
 59            360          -1.69671      -2.061054      1.135238
 60            360          -1.639562     -2.472566      .974177 
 61            360          -1.569227     -2.943659      .808003 
 62            360          -1.494245     -3.472687      .638534 
 63            360          -1.423632     -4.057048      .466577 
 64            360          -1.366168     -4.69258       .29191  
 65            360          -1.329896     -5.372722      .113357 
 66            360          -1.321835     -6.087445     -.071046 
 67            360          -1.347837     -6.821985     -.263808 
 68            360          -1.412551     -7.555681     -.467682 
 69            360          -1.519396     -8.261525     -.685329 
 70            360          -1.670531     -8.907462     -.918959 
 71            360          -1.866741     -9.460498     -1.169948
 72            360          -2.107229     -9.893605     -1.438456
 73            360          -2.389274     -10.19324     -1.723007
 74            360          -2.707741     -10.36354     -2.020089
 75            360          -3.054461     -10.42457     -2.323781
 76            360          -3.417578     -10.40571     -2.625504
 77            360          -3.781076     -10.33796     -2.914065
 78            360          -4.12488      -10.24841     -3.176173
 79            360          -4.426066     -10.15772     -3.397619
 80            360          -4.661614     -10.07984     -3.56517 
 81            360          -4.812565     -10.02295     -3.668878
 82            360          -4.868455     -9.990686     -3.704198
 83            360          -4.830143     -9.98333      -3.673146
 84            360          -4.709591     -9.99883      -3.584033
 85            360          -4.526702     -10.0336      -3.449885
 86            360          -4.304833     -10.08321     -3.286196
 87            360          -4.066788     -10.14295     -3.108743
 88            360          -3.832284     -10.2083      -2.931977
 89            360          -3.616937     -10.27536     -2.768127
 90            360          -3.43227      -10.34115     -2.626883
 91            360          -3.28624      -10.40375     -2.51547 
 92            360          -3.1839       -10.46237     -2.438902
 93            360          -3.12801      -10.51724     -2.400285
 94            360          -3.119505     -10.56943     -2.40109 
 95            360          -3.157806     -10.62062     -2.441353
 96            360          -3.240981     -10.67283     -2.519805
 97            360          -3.365786     -10.72822     -2.633916
 98            360          -3.527593     -10.7889      -2.779885
 99            360          -3.720249     -10.85691     -2.952588
 100           360          -3.93591      -10.93417     -3.145523
 101           360          -4.164912     -11.02253     -3.350805
 102           360          -4.395791     -11.12393     -3.559276
 103           360          -4.615588     -11.24046     -3.760803
 104           360          -4.810568     -11.37457     -3.944844
 105           360          -4.967415     -11.52916     -4.101283
 106           360          -5.074822     -11.70774     -4.221473
 107           360          -5.125152     -11.91452     -4.299303
 108           360          -5.115694     -12.15452     -4.33203 
 109           360          -5.049084     -12.43365     -4.320639
 110           360          -4.932735     -12.75885     -4.269611
 111           360          -4.777476     -13.13827     -4.18618 
 112           360          -4.595879     -13.58149     -4.079299
 113           360          -4.400719     -14.09995     -3.958572
 114           360          -4.203847     -14.70749     -3.833368
 115           360          -4.015556     -15.4213      -3.7122  
 116           360          -3.844334     -16.26318     -3.602373
 117           360          -3.696892     -17.26151     -3.509851
 118           360          -3.578327     -18.45386     -3.439249
 119           360          -3.492331     -19.88979     -3.393906
 120           360          -3.441392     -21.62944     -3.375973
 121           360          -3.426948     -23.71473     -3.386492
 122           360          -3.449489     -26.00473     -3.425442
 123           360          -3.508602     -27.61324     -3.491757
 124           360          -3.602959     -27.03749     -3.583309
 125           360          -3.730247     -24.85755     -3.696875
 126           360          -3.887066     -22.52912     -3.828097
 127           360          -4.068798     -20.51625     -3.971487
 128           360          -4.26948      -18.84115     -4.120494
 129           360          -4.481736     -17.44724     -4.267699
 130           360          -4.696823     -16.27941     -4.405173
 131           360          -4.904885     -15.29513     -4.525021
 132           360          -5.095479     -14.46291     -4.620084
 133           360          -5.258405     -13.75946     -4.684713
 134           360          -5.384792     -13.1673      -4.715467
 135           360          -5.468244     -12.67317     -4.711569
 136           360          -5.505766     -12.26682     -4.675001
 137           360          -5.498217     -11.94033     -4.61021 
 138           360          -5.450126     -11.68745     -4.523515
 139           360          -5.368938     -11.50333     -4.42236 
 140           360          -5.263932     -11.38419     -4.314581
 141           360          -5.145094     -11.32714     -4.207807
 142           360          -5.022177     -11.33008     -4.109037
 143           360          -4.904064     -11.39156     -4.024414
 144           360          -4.798422     -11.5108      -3.959142
 145           360          -4.71161      -11.68757     -3.917505
 146           360          -4.648728     -11.9223      -3.902957
 147           360          -4.613775     -12.216       -3.918237
 148           360          -4.60982      -12.57041     -3.965487
 149           360          -4.639191     -12.98804     -4.046372
 150           360          -4.703639     -13.47228     -4.162179
 151           360          -4.804481     -14.02763     -4.313902
 152           360          -4.942721     -14.65991     -4.50231 
 153           360          -5.119134     -15.3766      -4.727993
 154           360          -5.334344     -16.18723     -4.99139 
 155           360          -5.588862     -17.10396     -5.292797
 156           360          -5.883119     -18.14214     -5.632345
 157           360          -6.217459     -19.32076     -6.00995 
 158           360          -6.59211      -20.66192     -6.42522 
 159           360          -7.007114     -22.18668     -6.8773  
 160           360          -7.462198     -23.89881     -7.364646
 161           360          -7.956569     -25.73194     -7.884683
 162           360          -8.488587     -27.41446     -8.433324
 163           360          -9.055276     -28.3364      -9.004328
 164           360          -9.651615     -27.99488     -9.588476
 165           360          -10.26955     -26.73561     -10.17265
 166           360          -10.8967      -25.21713     -10.739  
 167           360          -11.51499     -23.78335     -11.26473
 168           360          -12.09946     -22.53144     -11.72308
 169           360          -12.61847     -21.46677     -12.08627
 170           360          -13.0363      -20.57018     -12.33058
 171           360          -13.31941     -19.81943     -12.44206
 172           360          -13.44508     -19.19504     -12.42049
 173           360          -13.40873     -18.68128     -12.27935
 174           360          -13.22543     -18.26586     -12.0418 
 175           360          -12.92466     -17.93938     -11.73488
 176           360          -12.54158     -17.69482     -11.3846 
 177           360          -12.10951     -17.52707     -11.01292
 178           360          -11.65577     -17.43271     -10.63683
 179           360          -11.20067     -17.40975     -10.26862
 180           360          -10.75823     -17.45752     -9.916644
