                   ****************************************
                     MINI-NUMERICAL ELECTROMAGNETICS CODE
                                   MININEC
                   ****************************************

FREQUENCY (MHZ): 1000
    WAVE LENGTH =  .2998  METERS

ENVIRONMENT (+1 FOR FREE SPACE, -1 FOR GROUND PLANE): +1

NO. OF GEO-OBJECTS: 498

WIRE NO. 1
            COORDINATES                                 END         NO. OF
   X             Y             Z          RADIUS     CONNECTION     SEGMENTS
 .052324       0             0                          0
 .05461        0             .02032        .002381      0              3

HELIX NO. 2
            COORDINATES                                 END         NO. OF
   X             Y             Z          RADIUS     CONNECTION     SEGMENTS
 .05461        0             .02032                     1
 .05429        .0059         .78232        .002381      0            160

WIRE NO. 3
            COORDINATES                                 END         NO. OF
   X             Y             Z          RADIUS     CONNECTION     SEGMENTS
-.078486      -.104648       0                          0
-.052324      -.104648       0             .004163      0              1

WIRE NO. 4
            COORDINATES                                 END         NO. OF
   X             Y             Z          RADIUS     CONNECTION     SEGMENTS
-.052324      -.104648       0                          3
-.026162      -.104648       0             .004163      0              1

WIRE NO. 5
            COORDINATES                                 END         NO. OF
   X             Y             Z          RADIUS     CONNECTION     SEGMENTS
-.026162      -.104648       0                          4
 0            -.104648       0             .004163      0              1

WIRE NO. 6
            COORDINATES                                 END         NO. OF
   X             Y             Z          RADIUS     CONNECTION     SEGMENTS
 0            -.104648       0                          5
 .026162      -.104648       0             .004163      0              1

WIRE NO. 7
            COORDINATES                                 END         NO. OF
   X             Y             Z          RADIUS     CONNECTION     SEGMENTS
 .026162      -.104648       0                          6
 .052324      -.104648       0             .004163      0              1

WIRE NO. 8
            COORDINATES                                 END         NO. OF
   X             Y             Z          RADIUS     CONNECTION     SEGMENTS
 .052324      -.104648       0                          7
 .078486      -.104648       0             .004163      0              1

WIRE NO. 9
            COORDINATES                                 END         NO. OF
   X             Y             Z          RADIUS     CONNECTION     SEGMENTS
-.104648      -.078486       0                          0
-.078486      -.078486       0             .004163      0              1

WIRE NO. 10
            COORDINATES                                 END         NO. OF
   X             Y             Z          RADIUS     CONNECTION     SEGMENTS
-.078486      -.078486       0                          9
-.052324      -.078486       0             .004163      0              1

WIRE NO. 11
            COORDINATES                                 END         NO. OF
   X             Y             Z          RADIUS     CONNECTION     SEGMENTS
-.052324      -.078486       0                         10
-.026162      -.078486       0             .004163      0              1

WIRE NO. 12
            COORDINATES                                 END         NO. OF
   X             Y             Z          RADIUS     CONNECTION     SEGMENTS
-.026162      -.078486       0                         11
 0            -.078486       0             .004163      0              1

WIRE NO. 13
            COORDINATES                                 END         NO. OF
   X             Y             Z          RADIUS     CONNECTION     SEGMENTS
 0            -.078486       0                         12
 .026162      -.078486       0             .004163      0              1

WIRE NO. 14
            COORDINATES                                 END         NO. OF
   X             Y             Z          RADIUS     CONNECTION     SEGMENTS
 .026162      -.078486       0                         13
 .052324      -.078486       0             .004163      0              1

WIRE NO. 15
            COORDINATES                                 END         NO. OF
   X             Y             Z          RADIUS     CONNECTION     SEGMENTS
 .052324      -.078486       0                         14
 .078486      -.078486       0             .004163      0              1

WIRE NO. 16
            COORDINATES                                 END         NO. OF
   X             Y             Z          RADIUS     CONNECTION     SEGMENTS
 .078486      -.078486       0                         15
 .104648      -.078486       0             .004163      0              1

WIRE NO. 17
            COORDINATES                                 END         NO. OF
   X             Y             Z          RADIUS     CONNECTION     SEGMENTS
-.104648      -.052324       0                          0
-.078486      -.052324       0             .004163      0              1

WIRE NO. 18
            COORDINATES                                 END         NO. OF
   X             Y             Z          RADIUS     CONNECTION     SEGMENTS
-.078486      -.052324       0                         17
-.052324      -.052324       0             .004163      0              1

WIRE NO. 19
            COORDINATES                                 END         NO. OF
   X             Y             Z          RADIUS     CONNECTION     SEGMENTS
-.052324      -.052324       0                         18
-.026162      -.052324       0             .004163      0              1

WIRE NO. 20
            COORDINATES                                 END         NO. OF
   X             Y             Z          RADIUS     CONNECTION     SEGMENTS
-.026162      -.052324       0                         19
 0            -.052324       0             .004163      0              1

WIRE NO. 21
            COORDINATES                                 END         NO. OF
   X             Y             Z          RADIUS     CONNECTION     SEGMENTS
 0            -.052324       0                         20
 .026162      -.052324       0             .004163      0              1

WIRE NO. 22
            COORDINATES                                 END         NO. OF
   X             Y             Z          RADIUS     CONNECTION     SEGMENTS
 .026162      -.052324       0                         21
 .052324      -.052324       0             .004163      0              1

WIRE NO. 23
            COORDINATES                                 END         NO. OF
   X             Y             Z          RADIUS     CONNECTION     SEGMENTS
 .052324      -.052324       0                         22
 .078486      -.052324       0             .004163      0              1

WIRE NO. 24
            COORDINATES                                 END         NO. OF
   X             Y             Z          RADIUS     CONNECTION     SEGMENTS
 .078486      -.052324       0                         23
 .104648      -.052324       0             .004163      0              1

WIRE NO. 25
            COORDINATES                                 END         NO. OF
   X             Y             Z          RADIUS     CONNECTION     SEGMENTS
-.104648      -.026162       0                          0
-.078486      -.026162       0             .004163      0              1

WIRE NO. 26
            COORDINATES                                 END         NO. OF
   X             Y             Z          RADIUS     CONNECTION     SEGMENTS
-.078486      -.026162       0                         25
-.052324      -.026162       0             .004163      0              1

WIRE NO. 27
            COORDINATES                                 END         NO. OF
   X             Y             Z          RADIUS     CONNECTION     SEGMENTS
-.052324      -.026162       0                         26
-.026162      -.026162       0             .004163      0              1

WIRE NO. 28
            COORDINATES                                 END         NO. OF
   X             Y             Z          RADIUS     CONNECTION     SEGMENTS
-.026162      -.026162       0                         27
 0            -.026162       0             .004163      0              1

WIRE NO. 29
            COORDINATES                                 END         NO. OF
   X             Y             Z          RADIUS     CONNECTION     SEGMENTS
 0            -.026162       0                         28
 .026162      -.026162       0             .004163      0              1

WIRE NO. 30
            COORDINATES                                 END         NO. OF
   X             Y             Z          RADIUS     CONNECTION     SEGMENTS
 .026162      -.026162       0                         29
 .052324      -.026162       0             .004163      0              1

WIRE NO. 31
            COORDINATES                                 END         NO. OF
   X             Y             Z          RADIUS     CONNECTION     SEGMENTS
 .052324      -.026162       0                         30
 .078486      -.026162       0             .004163      0              1

WIRE NO. 32
            COORDINATES                                 END         NO. OF
   X             Y             Z          RADIUS     CONNECTION     SEGMENTS
 .078486      -.026162       0                         31
 .104648      -.026162       0             .004163      0              1

WIRE NO. 33
            COORDINATES                                 END         NO. OF
   X             Y             Z          RADIUS     CONNECTION     SEGMENTS
-.13081        0             0                          0
-.104648       0             0             .004163      0              1

WIRE NO. 34
            COORDINATES                                 END         NO. OF
   X             Y             Z          RADIUS     CONNECTION     SEGMENTS
-.104648       0             0                         33
-.078486       0             0             .004163      0              1

WIRE NO. 35
            COORDINATES                                 END         NO. OF
   X             Y             Z          RADIUS     CONNECTION     SEGMENTS
-.078486       0             0                         34
-.052324       0             0             .004163      0              1

WIRE NO. 36
            COORDINATES                                 END         NO. OF
   X             Y             Z          RADIUS     CONNECTION     SEGMENTS
-.052324       0             0                         35
-.026162       0             0             .004163      0              1

WIRE NO. 37
            COORDINATES                                 END         NO. OF
   X             Y             Z          RADIUS     CONNECTION     SEGMENTS
-.026162       0             0                         36
 0             0             0             .004163      0              1

WIRE NO. 38
            COORDINATES                                 END         NO. OF
   X             Y             Z          RADIUS     CONNECTION     SEGMENTS
 0             0             0                         37
 .026162       0             0             .004163      0              1

WIRE NO. 39
            COORDINATES                                 END         NO. OF
   X             Y             Z          RADIUS     CONNECTION     SEGMENTS
 .026162       0             0                         38
 .052324       0             0             .004163      1              1

WIRE NO. 40
            COORDINATES                                 END         NO. OF
   X             Y             Z          RADIUS     CONNECTION     SEGMENTS
 .052324       0             0                         -1
 .078486       0             0             .004163      0              1

WIRE NO. 41
            COORDINATES                                 END         NO. OF
   X             Y             Z          RADIUS     CONNECTION     SEGMENTS
 .078486       0             0                         40
 .104648       0             0             .004163      0              1

WIRE NO. 42
            COORDINATES                                 END         NO. OF
   X             Y             Z          RADIUS     CONNECTION     SEGMENTS
 .104648       0             0                         41
 .13081        0             0             .004163      0              1

WIRE NO. 43
            COORDINATES                                 END         NO. OF
   X             Y             Z          RADIUS     CONNECTION     SEGMENTS
-.104648       .026162       0                          0
-.078486       .026162       0             .004163      0              1

WIRE NO. 44
            COORDINATES                                 END         NO. OF
   X             Y             Z          RADIUS     CONNECTION     SEGMENTS
-.078486       .026162       0                         43
-.052324       .026162       0             .004163      0              1

WIRE NO. 45
            COORDINATES                                 END         NO. OF
   X             Y             Z          RADIUS     CONNECTION     SEGMENTS
-.052324       .026162       0                         44
-.026162       .026162       0             .004163      0              1

WIRE NO. 46
            COORDINATES                                 END         NO. OF
   X             Y             Z          RADIUS     CONNECTION     SEGMENTS
-.026162       .026162       0                         45
 0             .026162       0             .004163      0              1

WIRE NO. 47
            COORDINATES                                 END         NO. OF
   X             Y             Z          RADIUS     CONNECTION     SEGMENTS
 0             .026162       0                         46
 .026162       .026162       0             .004163      0              1

WIRE NO. 48
            COORDINATES                                 END         NO. OF
   X             Y             Z          RADIUS     CONNECTION     SEGMENTS
 .026162       .026162       0                         47
 .052324       .026162       0             .004163      0              1

WIRE NO. 49
            COORDINATES                                 END         NO. OF
   X             Y             Z          RADIUS     CONNECTION     SEGMENTS
 .052324       .026162       0                         48
 .078486       .026162       0             .004163      0              1

WIRE NO. 50
            COORDINATES                                 END         NO. OF
   X             Y             Z          RADIUS     CONNECTION     SEGMENTS
 .078486       .026162       0                         49
 .104648       .026162       0             .004163      0              1

WIRE NO. 51
            COORDINATES                                 END         NO. OF
   X             Y             Z          RADIUS     CONNECTION     SEGMENTS
-.104648       .052324       0                          0
-.078486       .052324       0             .004163      0              1

WIRE NO. 52
            COORDINATES                                 END         NO. OF
   X             Y             Z          RADIUS     CONNECTION     SEGMENTS
-.078486       .052324       0                         51
-.052324       .052324       0             .004163      0              1

WIRE NO. 53
            COORDINATES                                 END         NO. OF
   X             Y             Z          RADIUS     CONNECTION     SEGMENTS
-.052324       .052324       0                         52
-.026162       .052324       0             .004163      0              1

WIRE NO. 54
            COORDINATES                                 END         NO. OF
   X             Y             Z          RADIUS     CONNECTION     SEGMENTS
-.026162       .052324       0                         53
 0             .052324       0             .004163      0              1

WIRE NO. 55
            COORDINATES                                 END         NO. OF
   X             Y             Z          RADIUS     CONNECTION     SEGMENTS
 0             .052324       0                         54
 .026162       .052324       0             .004163      0              1

WIRE NO. 56
            COORDINATES                                 END         NO. OF
   X             Y             Z          RADIUS     CONNECTION     SEGMENTS
 .026162       .052324       0                         55
 .052324       .052324       0             .004163      0              1

WIRE NO. 57
            COORDINATES                                 END         NO. OF
   X             Y             Z          RADIUS     CONNECTION     SEGMENTS
 .052324       .052324       0                         56
 .078486       .052324       0             .004163      0              1

WIRE NO. 58
            COORDINATES                                 END         NO. OF
   X             Y             Z          RADIUS     CONNECTION     SEGMENTS
 .078486       .052324       0                         57
 .104648       .052324       0             .004163      0              1

WIRE NO. 59
            COORDINATES                                 END         NO. OF
   X             Y             Z          RADIUS     CONNECTION     SEGMENTS
-.104648       .078486       0                          0
-.078486       .078486       0             .004163      0              1

WIRE NO. 60
            COORDINATES                                 END         NO. OF
   X             Y             Z          RADIUS     CONNECTION     SEGMENTS
-.078486       .078486       0                         59
-.052324       .078486       0             .004163      0              1

WIRE NO. 61
            COORDINATES                                 END         NO. OF
   X             Y             Z          RADIUS     CONNECTION     SEGMENTS
-.052324       .078486       0                         60
-.026162       .078486       0             .004163      0              1

WIRE NO. 62
            COORDINATES                                 END         NO. OF
   X             Y             Z          RADIUS     CONNECTION     SEGMENTS
-.026162       .078486       0                         61
 0             .078486       0             .004163      0              1

WIRE NO. 63
            COORDINATES                                 END         NO. OF
   X             Y             Z          RADIUS     CONNECTION     SEGMENTS
 0             .078486       0                         62
 .026162       .078486       0             .004163      0              1

WIRE NO. 64
            COORDINATES                                 END         NO. OF
   X             Y             Z          RADIUS     CONNECTION     SEGMENTS
 .026162       .078486       0                         63
 .052324       .078486       0             .004163      0              1

WIRE NO. 65
            COORDINATES                                 END         NO. OF
   X             Y             Z          RADIUS     CONNECTION     SEGMENTS
 .052324       .078486       0                         64
 .078486       .078486       0             .004163      0              1

WIRE NO. 66
            COORDINATES                                 END         NO. OF
   X             Y             Z          RADIUS     CONNECTION     SEGMENTS
 .078486       .078486       0                         65
 .104648       .078486       0             .004163      0              1

WIRE NO. 67
            COORDINATES                                 END         NO. OF
   X             Y             Z          RADIUS     CONNECTION     SEGMENTS
-.078486       .104648       0                          0
-.052324       .104648       0             .004163      0              1

WIRE NO. 68
            COORDINATES                                 END         NO. OF
   X             Y             Z          RADIUS     CONNECTION     SEGMENTS
-.052324       .104648       0                         67
-.026162       .104648       0             .004163      0              1

WIRE NO. 69
            COORDINATES                                 END         NO. OF
   X             Y             Z          RADIUS     CONNECTION     SEGMENTS
-.026162       .104648       0                         68
 0             .104648       0             .004163      0              1

WIRE NO. 70
            COORDINATES                                 END         NO. OF
   X             Y             Z          RADIUS     CONNECTION     SEGMENTS
 0             .104648       0                         69
 .026162       .104648       0             .004163      0              1

WIRE NO. 71
            COORDINATES                                 END         NO. OF
   X             Y             Z          RADIUS     CONNECTION     SEGMENTS
 .026162       .104648       0                         70
 .052324       .104648       0             .004163      0              1

WIRE NO. 72
            COORDINATES                                 END         NO. OF
   X             Y             Z          RADIUS     CONNECTION     SEGMENTS
 .052324       .104648       0                         71
 .078486       .104648       0             .004163      0              1

WIRE NO. 73
            COORDINATES                                 END         NO. OF
   X             Y             Z          RADIUS     CONNECTION     SEGMENTS
-.104648      -.078486       0                         -9
-.104648      -.052324       0             .004163     17              1

WIRE NO. 74
            COORDINATES                                 END         NO. OF
   X             Y             Z          RADIUS     CONNECTION     SEGMENTS
-.104648      -.052324       0                        -17
-.104648      -.026162       0             .004163     25              1

WIRE NO. 75
            COORDINATES                                 END         NO. OF
   X             Y             Z          RADIUS     CONNECTION     SEGMENTS
-.104648      -.026162       0                        -25
-.104648       0             0             .004163     -33              1

WIRE NO. 76
            COORDINATES                                 END         NO. OF
   X             Y             Z          RADIUS     CONNECTION     SEGMENTS
-.104648       0             0                         33
-.104648       .026162       0             .004163     43              1

WIRE NO. 77
            COORDINATES                                 END         NO. OF
   X             Y             Z          RADIUS     CONNECTION     SEGMENTS
-.104648       .026162       0                        -43
-.104648       .052324       0             .004163     51              1

WIRE NO. 78
            COORDINATES                                 END         NO. OF
   X             Y             Z          RADIUS     CONNECTION     SEGMENTS
-.104648       .052324       0                        -51
-.104648       .078486       0             .004163     59              1

WIRE NO. 79
            COORDINATES                                 END         NO. OF
   X             Y             Z          RADIUS     CONNECTION     SEGMENTS
-.078486      -.104648       0                         -3
-.078486      -.078486       0             .004163     -9              1

WIRE NO. 80
            COORDINATES                                 END         NO. OF
   X             Y             Z          RADIUS     CONNECTION     SEGMENTS
-.078486      -.078486       0                          9
-.078486      -.052324       0             .004163     -17              1

WIRE NO. 81
            COORDINATES                                 END         NO. OF
   X             Y             Z          RADIUS     CONNECTION     SEGMENTS
-.078486      -.052324       0                         17
-.078486      -.026162       0             .004163     -25              1

WIRE NO. 82
            COORDINATES                                 END         NO. OF
   X             Y             Z          RADIUS     CONNECTION     SEGMENTS
-.078486      -.026162       0                         25
-.078486       0             0             .004163     -34              1

WIRE NO. 83
            COORDINATES                                 END         NO. OF
   X             Y             Z          RADIUS     CONNECTION     SEGMENTS
-.078486       0             0                         34
-.078486       .026162       0             .004163     -43              1

WIRE NO. 84
            COORDINATES                                 END         NO. OF
   X             Y             Z          RADIUS     CONNECTION     SEGMENTS
-.078486       .026162       0                         43
-.078486       .052324       0             .004163     -51              1

WIRE NO. 85
            COORDINATES                                 END         NO. OF
   X             Y             Z          RADIUS     CONNECTION     SEGMENTS
-.078486       .052324       0                         51
-.078486       .078486       0             .004163     -59              1

WIRE NO. 86
            COORDINATES                                 END         NO. OF
   X             Y             Z          RADIUS     CONNECTION     SEGMENTS
-.078486       .078486       0                         59
-.078486       .104648       0             .004163     67              1

WIRE NO. 87
            COORDINATES                                 END         NO. OF
   X             Y             Z          RADIUS     CONNECTION     SEGMENTS
-.052324      -.104648       0                          3
-.052324      -.078486       0             .004163     -10              1

WIRE NO. 88
            COORDINATES                                 END         NO. OF
   X             Y             Z          RADIUS     CONNECTION     SEGMENTS
-.052324      -.078486       0                         10
-.052324      -.052324       0             .004163     -18              1

WIRE NO. 89
            COORDINATES                                 END         NO. OF
   X             Y             Z          RADIUS     CONNECTION     SEGMENTS
-.052324      -.052324       0                         18
-.052324      -.026162       0             .004163     -26              1

WIRE NO. 90
            COORDINATES                                 END         NO. OF
   X             Y             Z          RADIUS     CONNECTION     SEGMENTS
-.052324      -.026162       0                         26
-.052324       0             0             .004163     -35              1

WIRE NO. 91
            COORDINATES                                 END         NO. OF
   X             Y             Z          RADIUS     CONNECTION     SEGMENTS
-.052324       0             0                         35
-.052324       .026162       0             .004163     -44              1

WIRE NO. 92
            COORDINATES                                 END         NO. OF
   X             Y             Z          RADIUS     CONNECTION     SEGMENTS
-.052324       .026162       0                         44
-.052324       .052324       0             .004163     -52              1

WIRE NO. 93
            COORDINATES                                 END         NO. OF
   X             Y             Z          RADIUS     CONNECTION     SEGMENTS
-.052324       .052324       0                         52
-.052324       .078486       0             .004163     -60              1

WIRE NO. 94
            COORDINATES                                 END         NO. OF
   X             Y             Z          RADIUS     CONNECTION     SEGMENTS
-.052324       .078486       0                         60
-.052324       .104648       0             .004163     -67              1

WIRE NO. 95
            COORDINATES                                 END         NO. OF
   X             Y             Z          RADIUS     CONNECTION     SEGMENTS
-.026162      -.104648       0                          4
-.026162      -.078486       0             .004163     -11              1

WIRE NO. 96
            COORDINATES                                 END         NO. OF
   X             Y             Z          RADIUS     CONNECTION     SEGMENTS
-.026162      -.078486       0                         11
-.026162      -.052324       0             .004163     -19              1

WIRE NO. 97
            COORDINATES                                 END         NO. OF
   X             Y             Z          RADIUS     CONNECTION     SEGMENTS
-.026162      -.052324       0                         19
-.026162      -.026162       0             .004163     -27              1

WIRE NO. 98
            COORDINATES                                 END         NO. OF
   X             Y             Z          RADIUS     CONNECTION     SEGMENTS
-.026162      -.026162       0                         27
-.026162       0             0             .004163     -36              1

WIRE NO. 99
            COORDINATES                                 END         NO. OF
   X             Y             Z          RADIUS     CONNECTION     SEGMENTS
-.026162       0             0                         36
-.026162       .026162       0             .004163     -45              1

WIRE NO. 100
            COORDINATES                                 END         NO. OF
   X             Y             Z          RADIUS     CONNECTION     SEGMENTS
-.026162       .026162       0                         45
-.026162       .052324       0             .004163     -53              1

WIRE NO. 101
            COORDINATES                                 END         NO. OF
   X             Y             Z          RADIUS     CONNECTION     SEGMENTS
-.026162       .052324       0                         53
-.026162       .078486       0             .004163     -61              1

WIRE NO. 102
            COORDINATES                                 END         NO. OF
   X             Y             Z          RADIUS     CONNECTION     SEGMENTS
-.026162       .078486       0                         61
-.026162       .104648       0             .004163     -68              1

WIRE NO. 103
            COORDINATES                                 END         NO. OF
   X             Y             Z          RADIUS     CONNECTION     SEGMENTS
 0            -.13081        0                          0
 0            -.104648       0             .004163     -5              1

WIRE NO. 104
            COORDINATES                                 END         NO. OF
   X             Y             Z          RADIUS     CONNECTION     SEGMENTS
 0            -.104648       0                          5
 0            -.078486       0             .004163     -12              1

WIRE NO. 105
            COORDINATES                                 END         NO. OF
   X             Y             Z          RADIUS     CONNECTION     SEGMENTS
 0            -.078486       0                         12
 0            -.052324       0             .004163     -20              1

WIRE NO. 106
            COORDINATES                                 END         NO. OF
   X             Y             Z          RADIUS     CONNECTION     SEGMENTS
 0            -.052324       0                         20
 0            -.026162       0             .004163     -28              1

WIRE NO. 107
            COORDINATES                                 END         NO. OF
   X             Y             Z          RADIUS     CONNECTION     SEGMENTS
 0            -.026162       0                         28
 0             0             0             .004163     -37              1

WIRE NO. 108
            COORDINATES                                 END         NO. OF
   X             Y             Z          RADIUS     CONNECTION     SEGMENTS
 0             0             0                         37
 0             .026162       0             .004163     -46              1

WIRE NO. 109
            COORDINATES                                 END         NO. OF
   X             Y             Z          RADIUS     CONNECTION     SEGMENTS
 0             .026162       0                         46
 0             .052324       0             .004163     -54              1

WIRE NO. 110
            COORDINATES                                 END         NO. OF
   X             Y             Z          RADIUS     CONNECTION     SEGMENTS
 0             .052324       0                         54
 0             .078486       0             .004163     -62              1

WIRE NO. 111
            COORDINATES                                 END         NO. OF
   X             Y             Z          RADIUS     CONNECTION     SEGMENTS
 0             .078486       0                         62
 0             .104648       0             .004163     -69              1

WIRE NO. 112
            COORDINATES                                 END         NO. OF
   X             Y             Z          RADIUS     CONNECTION     SEGMENTS
 0             .104648       0                         69
 0             .13081        0             .004163      0              1

WIRE NO. 113
            COORDINATES                                 END         NO. OF
   X             Y             Z          RADIUS     CONNECTION     SEGMENTS
 .026162      -.104648       0                          6
 .026162      -.078486       0             .004163     -13              1

WIRE NO. 114
            COORDINATES                                 END         NO. OF
   X             Y             Z          RADIUS     CONNECTION     SEGMENTS
 .026162      -.078486       0                         13
 .026162      -.052324       0             .004163     -21              1

WIRE NO. 115
            COORDINATES                                 END         NO. OF
   X             Y             Z          RADIUS     CONNECTION     SEGMENTS
 .026162      -.052324       0                         21
 .026162      -.026162       0             .004163     -29              1

WIRE NO. 116
            COORDINATES                                 END         NO. OF
   X             Y             Z          RADIUS     CONNECTION     SEGMENTS
 .026162      -.026162       0                         29
 .026162       0             0             .004163     -38              1

WIRE NO. 117
            COORDINATES                                 END         NO. OF
   X             Y             Z          RADIUS     CONNECTION     SEGMENTS
 .026162       0             0                         38
 .026162       .026162       0             .004163     -47              1

WIRE NO. 118
            COORDINATES                                 END         NO. OF
   X             Y             Z          RADIUS     CONNECTION     SEGMENTS
 .026162       .026162       0                         47
 .026162       .052324       0             .004163     -55              1

WIRE NO. 119
            COORDINATES                                 END         NO. OF
   X             Y             Z          RADIUS     CONNECTION     SEGMENTS
 .026162       .052324       0                         55
 .026162       .078486       0             .004163     -63              1

WIRE NO. 120
            COORDINATES                                 END         NO. OF
   X             Y             Z          RADIUS     CONNECTION     SEGMENTS
 .026162       .078486       0                         63
 .026162       .104648       0             .004163     -70              1

WIRE NO. 121
            COORDINATES                                 END         NO. OF
   X             Y             Z          RADIUS     CONNECTION     SEGMENTS
 .052324      -.104648       0                          7
 .052324      -.078486       0             .004163     -14              1

WIRE NO. 122
            COORDINATES                                 END         NO. OF
   X             Y             Z          RADIUS     CONNECTION     SEGMENTS
 .052324      -.078486       0                         14
 .052324      -.052324       0             .004163     -22              1

WIRE NO. 123
            COORDINATES                                 END         NO. OF
   X             Y             Z          RADIUS     CONNECTION     SEGMENTS
 .052324      -.052324       0                         22
 .052324      -.026162       0             .004163     -30              1

WIRE NO. 124
            COORDINATES                                 END         NO. OF
   X             Y             Z          RADIUS     CONNECTION     SEGMENTS
 .052324      -.026162       0                         30
 .052324       0             0             .004163      1              1

WIRE NO. 125
            COORDINATES                                 END         NO. OF
   X             Y             Z          RADIUS     CONNECTION     SEGMENTS
 .052324       0             0                         -1
 .052324       .026162       0             .004163     -48              1

WIRE NO. 126
            COORDINATES                                 END         NO. OF
   X             Y             Z          RADIUS     CONNECTION     SEGMENTS
 .052324       .026162       0                         48
 .052324       .052324       0             .004163     -56              1

WIRE NO. 127
            COORDINATES                                 END         NO. OF
   X             Y             Z          RADIUS     CONNECTION     SEGMENTS
 .052324       .052324       0                         56
 .052324       .078486       0             .004163     -64              1

WIRE NO. 128
            COORDINATES                                 END         NO. OF
   X             Y             Z          RADIUS     CONNECTION     SEGMENTS
 .052324       .078486       0                         64
 .052324       .104648       0             .004163     -71              1

WIRE NO. 129
            COORDINATES                                 END         NO. OF
   X             Y             Z          RADIUS     CONNECTION     SEGMENTS
 .078486      -.104648       0                          8
 .078486      -.078486       0             .004163     -15              1

WIRE NO. 130
            COORDINATES                                 END         NO. OF
   X             Y             Z          RADIUS     CONNECTION     SEGMENTS
 .078486      -.078486       0                         15
 .078486      -.052324       0             .004163     -23              1

WIRE NO. 131
            COORDINATES                                 END         NO. OF
   X             Y             Z          RADIUS     CONNECTION     SEGMENTS
 .078486      -.052324       0                         23
 .078486      -.026162       0             .004163     -31              1

WIRE NO. 132
            COORDINATES                                 END         NO. OF
   X             Y             Z          RADIUS     CONNECTION     SEGMENTS
 .078486      -.026162       0                         31
 .078486       0             0             .004163     -40              1

WIRE NO. 133
            COORDINATES                                 END         NO. OF
   X             Y             Z          RADIUS     CONNECTION     SEGMENTS
 .078486       0             0                         40
 .078486       .026162       0             .004163     -49              1

WIRE NO. 134
            COORDINATES                                 END         NO. OF
   X             Y             Z          RADIUS     CONNECTION     SEGMENTS
 .078486       .026162       0                         49
 .078486       .052324       0             .004163     -57              1

WIRE NO. 135
            COORDINATES                                 END         NO. OF
   X             Y             Z          RADIUS     CONNECTION     SEGMENTS
 .078486       .052324       0                         57
 .078486       .078486       0             .004163     -65              1

WIRE NO. 136
            COORDINATES                                 END         NO. OF
   X             Y             Z          RADIUS     CONNECTION     SEGMENTS
 .078486       .078486       0                         65
 .078486       .104648       0             .004163     -72              1

WIRE NO. 137
            COORDINATES                                 END         NO. OF
   X             Y             Z          RADIUS     CONNECTION     SEGMENTS
 .104648      -.078486       0                         16
 .104648      -.052324       0             .004163     -24              1

WIRE NO. 138
            COORDINATES                                 END         NO. OF
   X             Y             Z          RADIUS     CONNECTION     SEGMENTS
 .104648      -.052324       0                         24
 .104648      -.026162       0             .004163     -32              1

WIRE NO. 139
            COORDINATES                                 END         NO. OF
   X             Y             Z          RADIUS     CONNECTION     SEGMENTS
 .104648      -.026162       0                         32
 .104648       0             0             .004163     -41              1

WIRE NO. 140
            COORDINATES                                 END         NO. OF
   X             Y             Z          RADIUS     CONNECTION     SEGMENTS
 .104648       0             0                         41
 .104648       .026162       0             .004163     -50              1

WIRE NO. 141
            COORDINATES                                 END         NO. OF
   X             Y             Z          RADIUS     CONNECTION     SEGMENTS
 .104648       .026162       0                         50
 .104648       .052324       0             .004163     -58              1

WIRE NO. 142
            COORDINATES                                 END         NO. OF
   X             Y             Z          RADIUS     CONNECTION     SEGMENTS
 .104648       .052324       0                         58
 .104648       .078486       0             .004163     -66              1

WIRE NO. 143
            COORDINATES                                 END         NO. OF
   X             Y             Z          RADIUS     CONNECTION     SEGMENTS
 0             .13081        .0254                      0
 .025519       .128297       .0254         .004042      0              1

WIRE NO. 144
            COORDINATES                                 END         NO. OF
   X             Y             Z          RADIUS     CONNECTION     SEGMENTS
 .025519       .128297       .0254                    143
 .050058       .120853       .0254         .004042      0              1

WIRE NO. 145
            COORDINATES                                 END         NO. OF
   X             Y             Z          RADIUS     CONNECTION     SEGMENTS
 .050058       .120853       .0254                    144
 .072674       .108765       .0254         .004042      0              1

WIRE NO. 146
            COORDINATES                                 END         NO. OF
   X             Y             Z          RADIUS     CONNECTION     SEGMENTS
 .072674       .108765       .0254                    145
 .092496       .092496       .0254         .004042      0              1

WIRE NO. 147
            COORDINATES                                 END         NO. OF
   X             Y             Z          RADIUS     CONNECTION     SEGMENTS
 .092496       .092496       .0254                    146
 .108765       .072674       .0254         .004042      0              1

WIRE NO. 148
            COORDINATES                                 END         NO. OF
   X             Y             Z          RADIUS     CONNECTION     SEGMENTS
 .108765       .072674       .0254                    147
 .120853       .050058       .0254         .004042      0              1

WIRE NO. 149
            COORDINATES                                 END         NO. OF
   X             Y             Z          RADIUS     CONNECTION     SEGMENTS
 .120853       .050058       .0254                    148
 .128297       .025519       .0254         .004042      0              1

WIRE NO. 150
            COORDINATES                                 END         NO. OF
   X             Y             Z          RADIUS     CONNECTION     SEGMENTS
 .128297       .025519       .0254                    149
 .13081        0             .0254         .004042      0              1

WIRE NO. 151
            COORDINATES                                 END         NO. OF
   X             Y             Z          RADIUS     CONNECTION     SEGMENTS
 .13081        0             .0254                    150
 .128297      -.025519       .0254         .004042      0              1

WIRE NO. 152
            COORDINATES                                 END         NO. OF
   X             Y             Z          RADIUS     CONNECTION     SEGMENTS
 .128297      -.025519       .0254                    151
 .120853      -.050058       .0254         .004042      0              1

WIRE NO. 153
            COORDINATES                                 END         NO. OF
   X             Y             Z          RADIUS     CONNECTION     SEGMENTS
 .120853      -.050058       .0254                    152
 .108765      -.072674       .0254         .004042      0              1

WIRE NO. 154
            COORDINATES                                 END         NO. OF
   X             Y             Z          RADIUS     CONNECTION     SEGMENTS
 .108765      -.072674       .0254                    153
 .092496      -.092496       .0254         .004042      0              1

WIRE NO. 155
            COORDINATES                                 END         NO. OF
   X             Y             Z          RADIUS     CONNECTION     SEGMENTS
 .092496      -.092496       .0254                    154
 .072674      -.108765       .0254         .004042      0              1

WIRE NO. 156
            COORDINATES                                 END         NO. OF
   X             Y             Z          RADIUS     CONNECTION     SEGMENTS
 .072674      -.108765       .0254                    155
 .050058      -.120853       .0254         .004042      0              1

WIRE NO. 157
            COORDINATES                                 END         NO. OF
   X             Y             Z          RADIUS     CONNECTION     SEGMENTS
 .050058      -.120853       .0254                    156
 .025519      -.128297       .0254         .004042      0              1

WIRE NO. 158
            COORDINATES                                 END         NO. OF
   X             Y             Z          RADIUS     CONNECTION     SEGMENTS
 .025519      -.128297       .0254                    157
 0            -.13081        .0254         .004042      0              1

WIRE NO. 159
            COORDINATES                                 END         NO. OF
   X             Y             Z          RADIUS     CONNECTION     SEGMENTS
 0            -.13081        .0254                    158
-.025519      -.128297       .0254         .004042      0              1

WIRE NO. 160
            COORDINATES                                 END         NO. OF
   X             Y             Z          RADIUS     CONNECTION     SEGMENTS
-.025519      -.128297       .0254                    159
-.050058      -.120853       .0254         .004042      0              1

WIRE NO. 161
            COORDINATES                                 END         NO. OF
   X             Y             Z          RADIUS     CONNECTION     SEGMENTS
-.050058      -.120853       .0254                    160
-.072674      -.108765       .0254         .004042      0              1

WIRE NO. 162
            COORDINATES                                 END         NO. OF
   X             Y             Z          RADIUS     CONNECTION     SEGMENTS
-.072674      -.108765       .0254                    161
-.092496      -.092496       .0254         .004042      0              1

WIRE NO. 163
            COORDINATES                                 END         NO. OF
   X             Y             Z          RADIUS     CONNECTION     SEGMENTS
-.092496      -.092496       .0254                    162
-.108765      -.072674       .0254         .004042      0              1

WIRE NO. 164
            COORDINATES                                 END         NO. OF
   X             Y             Z          RADIUS     CONNECTION     SEGMENTS
-.108765      -.072674       .0254                    163
-.120853      -.050058       .0254         .004042      0              1

WIRE NO. 165
            COORDINATES                                 END         NO. OF
   X             Y             Z          RADIUS     CONNECTION     SEGMENTS
-.120853      -.050058       .0254                    164
-.128297      -.025519       .0254         .004042      0              1

WIRE NO. 166
            COORDINATES                                 END         NO. OF
   X             Y             Z          RADIUS     CONNECTION     SEGMENTS
-.128297      -.025519       .0254                    165
-.13081        0             .0254         .004042      0              1

WIRE NO. 167
            COORDINATES                                 END         NO. OF
   X             Y             Z          RADIUS     CONNECTION     SEGMENTS
-.13081        0             .0254                    166
-.128297       .025519       .0254         .004042      0              1

WIRE NO. 168
            COORDINATES                                 END         NO. OF
   X             Y             Z          RADIUS     CONNECTION     SEGMENTS
-.128297       .025519       .0254                    167
-.120853       .050058       .0254         .004042      0              1

WIRE NO. 169
            COORDINATES                                 END         NO. OF
   X             Y             Z          RADIUS     CONNECTION     SEGMENTS
-.120853       .050058       .0254                    168
-.108765       .072674       .0254         .004042      0              1

WIRE NO. 170
            COORDINATES                                 END         NO. OF
   X             Y             Z          RADIUS     CONNECTION     SEGMENTS
-.108765       .072674       .0254                    169
-.092496       .092496       .0254         .004042      0              1

WIRE NO. 171
            COORDINATES                                 END         NO. OF
   X             Y             Z          RADIUS     CONNECTION     SEGMENTS
-.092496       .092496       .0254                    170
-.072674       .108765       .0254         .004042      0              1

WIRE NO. 172
            COORDINATES                                 END         NO. OF
   X             Y             Z          RADIUS     CONNECTION     SEGMENTS
-.072674       .108765       .0254                    171
-.050058       .120853       .0254         .004042      0              1

WIRE NO. 173
            COORDINATES                                 END         NO. OF
   X             Y             Z          RADIUS     CONNECTION     SEGMENTS
-.050058       .120853       .0254                    172
-.025519       .128297       .0254         .004042      0              1

WIRE NO. 174
            COORDINATES                                 END         NO. OF
   X             Y             Z          RADIUS     CONNECTION     SEGMENTS
-.025519       .128297       .0254                    173
 0             .13081        .0254         .004042     143              1

WIRE NO. 175
            COORDINATES                                 END         NO. OF
   X             Y             Z          RADIUS     CONNECTION     SEGMENTS
 0             .13081        .0508                      0
 .025519       .128297       .0508         .004042      0              1

WIRE NO. 176
            COORDINATES                                 END         NO. OF
   X             Y             Z          RADIUS     CONNECTION     SEGMENTS
 .025519       .128297       .0508                    175
 .050058       .120853       .0508         .004042      0              1

WIRE NO. 177
            COORDINATES                                 END         NO. OF
   X             Y             Z          RADIUS     CONNECTION     SEGMENTS
 .050058       .120853       .0508                    176
 .072674       .108765       .0508         .004042      0              1

WIRE NO. 178
            COORDINATES                                 END         NO. OF
   X             Y             Z          RADIUS     CONNECTION     SEGMENTS
 .072674       .108765       .0508                    177
 .092496       .092496       .0508         .004042      0              1

WIRE NO. 179
            COORDINATES                                 END         NO. OF
   X             Y             Z          RADIUS     CONNECTION     SEGMENTS
 .092496       .092496       .0508                    178
 .108765       .072674       .0508         .004042      0              1

WIRE NO. 180
            COORDINATES                                 END         NO. OF
   X             Y             Z          RADIUS     CONNECTION     SEGMENTS
 .108765       .072674       .0508                    179
 .120853       .050058       .0508         .004042      0              1

WIRE NO. 181
            COORDINATES                                 END         NO. OF
   X             Y             Z          RADIUS     CONNECTION     SEGMENTS
 .120853       .050058       .0508                    180
 .128297       .025519       .0508         .004042      0              1

WIRE NO. 182
            COORDINATES                                 END         NO. OF
   X             Y             Z          RADIUS     CONNECTION     SEGMENTS
 .128297       .025519       .0508                    181
 .13081        0             .0508         .004042      0              1

WIRE NO. 183
            COORDINATES                                 END         NO. OF
   X             Y             Z          RADIUS     CONNECTION     SEGMENTS
 .13081        0             .0508                    182
 .128297      -.025519       .0508         .004042      0              1

WIRE NO. 184
            COORDINATES                                 END         NO. OF
   X             Y             Z          RADIUS     CONNECTION     SEGMENTS
 .128297      -.025519       .0508                    183
 .120853      -.050058       .0508         .004042      0              1

WIRE NO. 185
            COORDINATES                                 END         NO. OF
   X             Y             Z          RADIUS     CONNECTION     SEGMENTS
 .120853      -.050058       .0508                    184
 .108765      -.072674       .0508         .004042      0              1

WIRE NO. 186
            COORDINATES                                 END         NO. OF
   X             Y             Z          RADIUS     CONNECTION     SEGMENTS
 .108765      -.072674       .0508                    185
 .092496      -.092496       .0508         .004042      0              1

WIRE NO. 187
            COORDINATES                                 END         NO. OF
   X             Y             Z          RADIUS     CONNECTION     SEGMENTS
 .092496      -.092496       .0508                    186
 .072674      -.108765       .0508         .004042      0              1

WIRE NO. 188
            COORDINATES                                 END         NO. OF
   X             Y             Z          RADIUS     CONNECTION     SEGMENTS
 .072674      -.108765       .0508                    187
 .050058      -.120853       .0508         .004042      0              1

WIRE NO. 189
            COORDINATES                                 END         NO. OF
   X             Y             Z          RADIUS     CONNECTION     SEGMENTS
 .050058      -.120853       .0508                    188
 .025519      -.128297       .0508         .004042      0              1

WIRE NO. 190
            COORDINATES                                 END         NO. OF
   X             Y             Z          RADIUS     CONNECTION     SEGMENTS
 .025519      -.128297       .0508                    189
 0            -.13081        .0508         .004042      0              1

WIRE NO. 191
            COORDINATES                                 END         NO. OF
   X             Y             Z          RADIUS     CONNECTION     SEGMENTS
 0            -.13081        .0508                    190
-.025519      -.128297       .0508         .004042      0              1

WIRE NO. 192
            COORDINATES                                 END         NO. OF
   X             Y             Z          RADIUS     CONNECTION     SEGMENTS
-.025519      -.128297       .0508                    191
-.050058      -.120853       .0508         .004042      0              1

WIRE NO. 193
            COORDINATES                                 END         NO. OF
   X             Y             Z          RADIUS     CONNECTION     SEGMENTS
-.050058      -.120853       .0508                    192
-.072674      -.108765       .0508         .004042      0              1

WIRE NO. 194
            COORDINATES                                 END         NO. OF
   X             Y             Z          RADIUS     CONNECTION     SEGMENTS
-.072674      -.108765       .0508                    193
-.092496      -.092496       .0508         .004042      0              1

WIRE NO. 195
            COORDINATES                                 END         NO. OF
   X             Y             Z          RADIUS     CONNECTION     SEGMENTS
-.092496      -.092496       .0508                    194
-.108765      -.072674       .0508         .004042      0              1

WIRE NO. 196
            COORDINATES                                 END         NO. OF
   X             Y             Z          RADIUS     CONNECTION     SEGMENTS
-.108765      -.072674       .0508                    195
-.120853      -.050058       .0508         .004042      0              1

WIRE NO. 197
            COORDINATES                                 END         NO. OF
   X             Y             Z          RADIUS     CONNECTION     SEGMENTS
-.120853      -.050058       .0508                    196
-.128297      -.025519       .0508         .004042      0              1

WIRE NO. 198
            COORDINATES                                 END         NO. OF
   X             Y             Z          RADIUS     CONNECTION     SEGMENTS
-.128297      -.025519       .0508                    197
-.13081        0             .0508         .004042      0              1

WIRE NO. 199
            COORDINATES                                 END         NO. OF
   X             Y             Z          RADIUS     CONNECTION     SEGMENTS
-.13081        0             .0508                    198
-.128297       .025519       .0508         .004042      0              1

WIRE NO. 200
            COORDINATES                                 END         NO. OF
   X             Y             Z          RADIUS     CONNECTION     SEGMENTS
-.128297       .025519       .0508                    199
-.120853       .050058       .0508         .004042      0              1

WIRE NO. 201
            COORDINATES                                 END         NO. OF
   X             Y             Z          RADIUS     CONNECTION     SEGMENTS
-.120853       .050058       .0508                    200
-.108765       .072674       .0508         .004042      0              1

WIRE NO. 202
            COORDINATES                                 END         NO. OF
   X             Y             Z          RADIUS     CONNECTION     SEGMENTS
-.108765       .072674       .0508                    201
-.092496       .092496       .0508         .004042      0              1

WIRE NO. 203
            COORDINATES                                 END         NO. OF
   X             Y             Z          RADIUS     CONNECTION     SEGMENTS
-.092496       .092496       .0508                    202
-.072674       .108765       .0508         .004042      0              1

WIRE NO. 204
            COORDINATES                                 END         NO. OF
   X             Y             Z          RADIUS     CONNECTION     SEGMENTS
-.072674       .108765       .0508                    203
-.050058       .120853       .0508         .004042      0              1

WIRE NO. 205
            COORDINATES                                 END         NO. OF
   X             Y             Z          RADIUS     CONNECTION     SEGMENTS
-.050058       .120853       .0508                    204
-.025519       .128297       .0508         .004042      0              1

WIRE NO. 206
            COORDINATES                                 END         NO. OF
   X             Y             Z          RADIUS     CONNECTION     SEGMENTS
-.025519       .128297       .0508                    205
 0             .13081        .0508         .004042     175              1

WIRE NO. 207
            COORDINATES                                 END         NO. OF
   X             Y             Z          RADIUS     CONNECTION     SEGMENTS
 0             .13081        .0762                      0
 .025519       .128297       .0762         .004042      0              1

WIRE NO. 208
            COORDINATES                                 END         NO. OF
   X             Y             Z          RADIUS     CONNECTION     SEGMENTS
 .025519       .128297       .0762                    207
 .050058       .120853       .0762         .004042      0              1

WIRE NO. 209
            COORDINATES                                 END         NO. OF
   X             Y             Z          RADIUS     CONNECTION     SEGMENTS
 .050058       .120853       .0762                    208
 .072674       .108765       .0762         .004042      0              1

WIRE NO. 210
            COORDINATES                                 END         NO. OF
   X             Y             Z          RADIUS     CONNECTION     SEGMENTS
 .072674       .108765       .0762                    209
 .092496       .092496       .0762         .004042      0              1

WIRE NO. 211
            COORDINATES                                 END         NO. OF
   X             Y             Z          RADIUS     CONNECTION     SEGMENTS
 .092496       .092496       .0762                    210
 .108765       .072674       .0762         .004042      0              1

WIRE NO. 212
            COORDINATES                                 END         NO. OF
   X             Y             Z          RADIUS     CONNECTION     SEGMENTS
 .108765       .072674       .0762                    211
 .120853       .050058       .0762         .004042      0              1

WIRE NO. 213
            COORDINATES                                 END         NO. OF
   X             Y             Z          RADIUS     CONNECTION     SEGMENTS
 .120853       .050058       .0762                    212
 .128297       .025519       .0762         .004042      0              1

WIRE NO. 214
            COORDINATES                                 END         NO. OF
   X             Y             Z          RADIUS     CONNECTION     SEGMENTS
 .128297       .025519       .0762                    213
 .13081        0             .0762         .004042      0              1

WIRE NO. 215
            COORDINATES                                 END         NO. OF
   X             Y             Z          RADIUS     CONNECTION     SEGMENTS
 .13081        0             .0762                    214
 .128297      -.025519       .0762         .004042      0              1

WIRE NO. 216
            COORDINATES                                 END         NO. OF
   X             Y             Z          RADIUS     CONNECTION     SEGMENTS
 .128297      -.025519       .0762                    215
 .120853      -.050058       .0762         .004042      0              1

WIRE NO. 217
            COORDINATES                                 END         NO. OF
   X             Y             Z          RADIUS     CONNECTION     SEGMENTS
 .120853      -.050058       .0762                    216
 .108765      -.072674       .0762         .004042      0              1

WIRE NO. 218
            COORDINATES                                 END         NO. OF
   X             Y             Z          RADIUS     CONNECTION     SEGMENTS
 .108765      -.072674       .0762                    217
 .092496      -.092496       .0762         .004042      0              1

WIRE NO. 219
            COORDINATES                                 END         NO. OF
   X             Y             Z          RADIUS     CONNECTION     SEGMENTS
 .092496      -.092496       .0762                    218
 .072674      -.108765       .0762         .004042      0              1

WIRE NO. 220
            COORDINATES                                 END         NO. OF
   X             Y             Z          RADIUS     CONNECTION     SEGMENTS
 .072674      -.108765       .0762                    219
 .050058      -.120853       .0762         .004042      0              1

WIRE NO. 221
            COORDINATES                                 END         NO. OF
   X             Y             Z          RADIUS     CONNECTION     SEGMENTS
 .050058      -.120853       .0762                    220
 .025519      -.128297       .0762         .004042      0              1

WIRE NO. 222
            COORDINATES                                 END         NO. OF
   X             Y             Z          RADIUS     CONNECTION     SEGMENTS
 .025519      -.128297       .0762                    221
 0            -.13081        .0762         .004042      0              1

WIRE NO. 223
            COORDINATES                                 END         NO. OF
   X             Y             Z          RADIUS     CONNECTION     SEGMENTS
 0            -.13081        .0762                    222
-.025519      -.128297       .0762         .004042      0              1

WIRE NO. 224
            COORDINATES                                 END         NO. OF
   X             Y             Z          RADIUS     CONNECTION     SEGMENTS
-.025519      -.128297       .0762                    223
-.050058      -.120853       .0762         .004042      0              1

WIRE NO. 225
            COORDINATES                                 END         NO. OF
   X             Y             Z          RADIUS     CONNECTION     SEGMENTS
-.050058      -.120853       .0762                    224
-.072674      -.108765       .0762         .004042      0              1

WIRE NO. 226
            COORDINATES                                 END         NO. OF
   X             Y             Z          RADIUS     CONNECTION     SEGMENTS
-.072674      -.108765       .0762                    225
-.092496      -.092496       .0762         .004042      0              1

WIRE NO. 227
            COORDINATES                                 END         NO. OF
   X             Y             Z          RADIUS     CONNECTION     SEGMENTS
-.092496      -.092496       .0762                    226
-.108765      -.072674       .0762         .004042      0              1

WIRE NO. 228
            COORDINATES                                 END         NO. OF
   X             Y             Z          RADIUS     CONNECTION     SEGMENTS
-.108765      -.072674       .0762                    227
-.120853      -.050058       .0762         .004042      0              1

WIRE NO. 229
            COORDINATES                                 END         NO. OF
   X             Y             Z          RADIUS     CONNECTION     SEGMENTS
-.120853      -.050058       .0762                    228
-.128297      -.025519       .0762         .004042      0              1

WIRE NO. 230
            COORDINATES                                 END         NO. OF
   X             Y             Z          RADIUS     CONNECTION     SEGMENTS
-.128297      -.025519       .0762                    229
-.13081        0             .0762         .004042      0              1

WIRE NO. 231
            COORDINATES                                 END         NO. OF
   X             Y             Z          RADIUS     CONNECTION     SEGMENTS
-.13081        0             .0762                    230
-.128297       .025519       .0762         .004042      0              1

WIRE NO. 232
            COORDINATES                                 END         NO. OF
   X             Y             Z          RADIUS     CONNECTION     SEGMENTS
-.128297       .025519       .0762                    231
-.120853       .050058       .0762         .004042      0              1

WIRE NO. 233
            COORDINATES                                 END         NO. OF
   X             Y             Z          RADIUS     CONNECTION     SEGMENTS
-.120853       .050058       .0762                    232
-.108765       .072674       .0762         .004042      0              1

WIRE NO. 234
            COORDINATES                                 END         NO. OF
   X             Y             Z          RADIUS     CONNECTION     SEGMENTS
-.108765       .072674       .0762                    233
-.092496       .092496       .0762         .004042      0              1

WIRE NO. 235
            COORDINATES                                 END         NO. OF
   X             Y             Z          RADIUS     CONNECTION     SEGMENTS
-.092496       .092496       .0762                    234
-.072674       .108765       .0762         .004042      0              1

WIRE NO. 236
            COORDINATES                                 END         NO. OF
   X             Y             Z          RADIUS     CONNECTION     SEGMENTS
-.072674       .108765       .0762                    235
-.050058       .120853       .0762         .004042      0              1

WIRE NO. 237
            COORDINATES                                 END         NO. OF
   X             Y             Z          RADIUS     CONNECTION     SEGMENTS
-.050058       .120853       .0762                    236
-.025519       .128297       .0762         .004042      0              1

WIRE NO. 238
            COORDINATES                                 END         NO. OF
   X             Y             Z          RADIUS     CONNECTION     SEGMENTS
-.025519       .128297       .0762                    237
 0             .13081        .0762         .004042     207              1

WIRE NO. 239
            COORDINATES                                 END         NO. OF
   X             Y             Z          RADIUS     CONNECTION     SEGMENTS
 0             .13081        .1016                      0
 .025519       .128297       .1016         .004042      0              1

WIRE NO. 240
            COORDINATES                                 END         NO. OF
   X             Y             Z          RADIUS     CONNECTION     SEGMENTS
 .025519       .128297       .1016                    239
 .050058       .120853       .1016         .004042      0              1

WIRE NO. 241
            COORDINATES                                 END         NO. OF
   X             Y             Z          RADIUS     CONNECTION     SEGMENTS
 .050058       .120853       .1016                    240
 .072674       .108765       .1016         .004042      0              1

WIRE NO. 242
            COORDINATES                                 END         NO. OF
   X             Y             Z          RADIUS     CONNECTION     SEGMENTS
 .072674       .108765       .1016                    241
 .092496       .092496       .1016         .004042      0              1

WIRE NO. 243
            COORDINATES                                 END         NO. OF
   X             Y             Z          RADIUS     CONNECTION     SEGMENTS
 .092496       .092496       .1016                    242
 .108765       .072674       .1016         .004042      0              1

WIRE NO. 244
            COORDINATES                                 END         NO. OF
   X             Y             Z          RADIUS     CONNECTION     SEGMENTS
 .108765       .072674       .1016                    243
 .120853       .050058       .1016         .004042      0              1

WIRE NO. 245
            COORDINATES                                 END         NO. OF
   X             Y             Z          RADIUS     CONNECTION     SEGMENTS
 .120853       .050058       .1016                    244
 .128297       .025519       .1016         .004042      0              1

WIRE NO. 246
            COORDINATES                                 END         NO. OF
   X             Y             Z          RADIUS     CONNECTION     SEGMENTS
 .128297       .025519       .1016                    245
 .13081        0             .1016         .004042      0              1

WIRE NO. 247
            COORDINATES                                 END         NO. OF
   X             Y             Z          RADIUS     CONNECTION     SEGMENTS
 .13081        0             .1016                    246
 .128297      -.025519       .1016         .004042      0              1

WIRE NO. 248
            COORDINATES                                 END         NO. OF
   X             Y             Z          RADIUS     CONNECTION     SEGMENTS
 .128297      -.025519       .1016                    247
 .120853      -.050058       .1016         .004042      0              1

WIRE NO. 249
            COORDINATES                                 END         NO. OF
   X             Y             Z          RADIUS     CONNECTION     SEGMENTS
 .120853      -.050058       .1016                    248
 .108765      -.072674       .1016         .004042      0              1

WIRE NO. 250
            COORDINATES                                 END         NO. OF
   X             Y             Z          RADIUS     CONNECTION     SEGMENTS
 .108765      -.072674       .1016                    249
 .092496      -.092496       .1016         .004042      0              1

WIRE NO. 251
            COORDINATES                                 END         NO. OF
   X             Y             Z          RADIUS     CONNECTION     SEGMENTS
 .092496      -.092496       .1016                    250
 .072674      -.108765       .1016         .004042      0              1

WIRE NO. 252
            COORDINATES                                 END         NO. OF
   X             Y             Z          RADIUS     CONNECTION     SEGMENTS
 .072674      -.108765       .1016                    251
 .050058      -.120853       .1016         .004042      0              1

WIRE NO. 253
            COORDINATES                                 END         NO. OF
   X             Y             Z          RADIUS     CONNECTION     SEGMENTS
 .050058      -.120853       .1016                    252
 .025519      -.128297       .1016         .004042      0              1

WIRE NO. 254
            COORDINATES                                 END         NO. OF
   X             Y             Z          RADIUS     CONNECTION     SEGMENTS
 .025519      -.128297       .1016                    253
 0            -.13081        .1016         .004042      0              1

WIRE NO. 255
            COORDINATES                                 END         NO. OF
   X             Y             Z          RADIUS     CONNECTION     SEGMENTS
 0            -.13081        .1016                    254
-.025519      -.128297       .1016         .004042      0              1

WIRE NO. 256
            COORDINATES                                 END         NO. OF
   X             Y             Z          RADIUS     CONNECTION     SEGMENTS
-.025519      -.128297       .1016                    255
-.050058      -.120853       .1016         .004042      0              1

WIRE NO. 257
            COORDINATES                                 END         NO. OF
   X             Y             Z          RADIUS     CONNECTION     SEGMENTS
-.050058      -.120853       .1016                    256
-.072674      -.108765       .1016         .004042      0              1

WIRE NO. 258
            COORDINATES                                 END         NO. OF
   X             Y             Z          RADIUS     CONNECTION     SEGMENTS
-.072674      -.108765       .1016                    257
-.092496      -.092496       .1016         .004042      0              1

WIRE NO. 259
            COORDINATES                                 END         NO. OF
   X             Y             Z          RADIUS     CONNECTION     SEGMENTS
-.092496      -.092496       .1016                    258
-.108765      -.072674       .1016         .004042      0              1

WIRE NO. 260
            COORDINATES                                 END         NO. OF
   X             Y             Z          RADIUS     CONNECTION     SEGMENTS
-.108765      -.072674       .1016                    259
-.120853      -.050058       .1016         .004042      0              1

WIRE NO. 261
            COORDINATES                                 END         NO. OF
   X             Y             Z          RADIUS     CONNECTION     SEGMENTS
-.120853      -.050058       .1016                    260
-.128297      -.025519       .1016         .004042      0              1

WIRE NO. 262
            COORDINATES                                 END         NO. OF
   X             Y             Z          RADIUS     CONNECTION     SEGMENTS
-.128297      -.025519       .1016                    261
-.13081        0             .1016         .004042      0              1

WIRE NO. 263
            COORDINATES                                 END         NO. OF
   X             Y             Z          RADIUS     CONNECTION     SEGMENTS
-.13081        0             .1016                    262
-.128297       .025519       .1016         .004042      0              1

WIRE NO. 264
            COORDINATES                                 END         NO. OF
   X             Y             Z          RADIUS     CONNECTION     SEGMENTS
-.128297       .025519       .1016                    263
-.120853       .050058       .1016         .004042      0              1

WIRE NO. 265
            COORDINATES                                 END         NO. OF
   X             Y             Z          RADIUS     CONNECTION     SEGMENTS
-.120853       .050058       .1016                    264
-.108765       .072674       .1016         .004042      0              1

WIRE NO. 266
            COORDINATES                                 END         NO. OF
   X             Y             Z          RADIUS     CONNECTION     SEGMENTS
-.108765       .072674       .1016                    265
-.092496       .092496       .1016         .004042      0              1

WIRE NO. 267
            COORDINATES                                 END         NO. OF
   X             Y             Z          RADIUS     CONNECTION     SEGMENTS
-.092496       .092496       .1016                    266
-.072674       .108765       .1016         .004042      0              1

WIRE NO. 268
            COORDINATES                                 END         NO. OF
   X             Y             Z          RADIUS     CONNECTION     SEGMENTS
-.072674       .108765       .1016                    267
-.050058       .120853       .1016         .004042      0              1

WIRE NO. 269
[...]
 59            350          -.82587       -2.350156      1.488821
 60            350          -.8475        -2.814185      1.289844
 61            350          -.86823       -3.340363      1.07958 
 62            350          -.891798      -3.926424      .861021 
 63            350          -.922757      -4.568335      .636547 
 64            350          -.966102      -5.259207      .407837 
 65            350          -1.026911     -5.987799      .175829 
 66            350          -1.110039     -6.736671     -.059234 
 67            350          -1.219859     -7.480354     -.297689 
 68            350          -1.360032     -8.184543     -.540248 
 69            350          -1.533305     -8.808079     -.787724 
 70            350          -1.74128      -9.309571     -1.040704
 71            350          -1.98414      -9.658322     -1.299176
 72            350          -2.260292     -9.844988     -1.562155
 73            350          -2.565916     -9.88515      -1.827319
 74            350          -2.894428     -9.813134     -2.090703
 75            350          -3.23593      -9.670519     -2.346531
 76            350          -3.576811     -9.496071     -2.587253
 77            350          -3.899819     -9.320457     -2.803913
 78            350          -4.185005     -9.165148     -2.986915
 79            350          -4.411907     -9.043555     -3.127206
 80            350          -4.562941     -8.962818     -3.217701
 81            350          -4.627208     -8.925433     -3.254657
 82            350          -4.60329      -8.930503     -3.238575
 83            350          -4.499728     -8.974595     -3.174337
 84            350          -4.332931     -9.05233      -3.070532
 85            350          -4.123553     -9.156813     -2.93821 
 86            350          -3.892846     -9.280016     -2.789453
 87            350          -3.660033     -9.413216     -2.636116
 88            350          -3.440973     -9.547534     -2.48893 
 89            350          -3.247858     -9.674596     -2.357004
 90            350          -3.089493     -9.787266     -2.247643
 91            350          -2.971828     -9.880349     -2.16638 
 92            350          -2.898504     -9.951115     -2.117113
 93            350          -2.871311     -9.999513     -2.102278
 94            350          -2.890531     -10.02804     -2.123007
 95            350          -2.95514      -10.04129     -2.179255
 96            350          -3.062904     -10.04529     -2.269871
 97            350          -3.210369     -10.04681     -2.392634
 98            350          -3.392781     -10.05276     -2.544247
 99            350          -3.603946     -10.06974     -2.720308
 100           350          -3.836095     -10.10374     -2.915294
 101           350          -4.079797     -10.16008     -3.122568
 102           350          -4.324031     -10.24336     -3.334487
 103           350          -4.556523     -10.35761     -3.542624
 104           350          -4.764449     -10.50644     -3.738178
 105           350          -4.935546     -10.69318     -3.912562
 106           350          -5.059516     -10.92112     -4.058147
 107           350          -5.129458     -11.19368     -4.169048
 108           350          -5.142908     -11.51466     -4.241803
 109           350          -5.102174     -11.88838     -4.275776
 110           350          -5.013815     -12.31997     -4.273169
 111           350          -4.887474     -12.8156      -4.23865 
 112           350          -4.734432     -13.38273     -4.178692
 113           350          -4.566262     -14.03036     -4.10079 
 114           350          -4.393815     -14.76928     -4.012712
 115           350          -4.226622     -15.61202     -3.92189 
 116           350          -4.072633     -16.57215     -3.835006
 117           350          -3.938203     -17.66164     -3.757741
 118           350          -3.828203     -18.88309     -3.694666
 119           350          -3.74619      -20.20911     -3.64922 
 120           350          -3.694566     -21.53453     -3.623732
 121           350          -3.674716     -22.60117     -3.619461
 122           350          -3.687094     -23.01034     -3.636636
 123           350          -3.731266     -22.53845     -3.674482
 124           350          -3.805904     -21.41537     -3.731242
 125           350          -3.908749     -20.04084     -3.804196
 126           350          -4.03654      -18.67228     -3.889699
 127           350          -4.184948     -17.4149      -3.983266
 128           350          -4.348516     -16.29689     -4.079711
 129           350          -4.520682     -15.31673     -4.173387
 130           350          -4.693896     -14.46358     -4.25852 
 131           350          -4.859912     -13.72499     -4.329646
 132           350          -5.010273     -13.08946     -4.382101
 133           350          -5.137003     -12.54714     -4.412497
 134           350          -5.233414     -12.08986     -4.419107
 135           350          -5.294908     -11.71098     -4.402074
 136           350          -5.319581     -11.40513     -4.363393
 137           350          -5.308477     -11.16801     -4.306683
 138           350          -5.265409     -10.99626     -4.236792
 139           350          -5.196409     -10.88729     -4.159332
 140           350          -5.108962     -10.83921     -4.080218
 141           350          -5.011192     -10.85077     -4.005278
 142           350          -4.911166     -10.9213      -3.93997 
 143           350          -4.816388     -11.05073     -3.889202
 144           350          -4.733505     -11.23958     -3.857255
 145           350          -4.668182     -11.489       -3.847762
 146           350          -4.625106     -11.80087     -3.863756
 147           350          -4.608074     -12.17786     -3.907721
 148           350          -4.620111     -12.62365     -3.981674
 149           350          -4.66361      -13.14306     -4.087239
 150           350          -4.74046      -13.74248     -4.225716
 151           350          -4.852171     -14.43019     -4.398143
 152           350          -4.999973     -15.21709     -4.605341
 153           350          -5.184902     -16.11751     -4.84795 
 154           350          -5.407876     -17.15055     -5.126447
 155           350          -5.669747     -18.34186     -5.441139
 156           350          -5.971339     -19.72588     -5.792138
 157           350          -6.31347      -21.34766     -6.179304
 158           350          -6.696953     -23.25862     -6.60214 
 159           350          -7.122566     -25.47994     -7.05963 
 160           350          -7.59098      -27.82333     -7.550007
 161           350          -8.10262      -29.3831      -8.0704  
 162           350          -8.657428     -28.88021     -8.616365
 163           350          -9.254467     -26.94958     -9.18125 
 164           350          -9.891281     -24.87029     -9.755427
 165           350          -10.56291     -23.06579     -10.32546
 166           350          -11.26042     -21.56696     -10.87349
 167           350          -11.96884     -20.32653     -11.37715
 168           350          -12.66471     -19.29501     -11.8109 
 169           350          -13.31394     -18.4332      -12.14899
 170           350          -13.87184     -17.71174     -12.37024
 171           350          -14.2882      -17.10879     -12.46312
 172           350          -14.51907     -16.60809     -12.42886
 173           350          -14.542       -16.19739     -12.281  
 174           350          -14.36536     -15.8675      -12.04151
 175           350          -14.02457     -15.61154     -11.73567
 176           350          -13.56825     -15.42445     -11.38763
 177           350          -13.04406     -15.30268     -11.01787
 178           350          -12.49055     -15.24396     -10.64231
 179           350          -11.93523     -15.24715     -10.27255
 180           350          -11.39602     -15.31222     -9.916591
 0             360           9.868079      11.16732      13.57641
 1             360           9.833971      11.16608      13.5612 
 2             360           9.78047       11.14988      13.52923
 3             360           9.707125      11.11864      13.48028
 4             360           9.613392      11.07223      13.41408
 5             360           9.498627      11.01047      13.3303 
 6             360           9.362078      10.93306      13.22852
 7             360           9.202874      10.83967      13.10823
 8             360           9.020014      10.72987      12.96885
 9             360           8.81235       10.60317      12.80972
 10            360           8.578569      10.45898      12.63006
 11            360           8.317171      10.29661      12.429  
 12            360           8.026441      10.11531      12.20557
 13            360           7.704412      9.914202      11.95867
 14            360           7.348824      9.69229       11.68704
 15            360           6.957064      9.448466      11.38932
 16            360           6.526099      9.181479      11.06395
 17            360           6.052382      8.889924      10.70919
 18            360           5.531726      8.572216      10.32309
 19            360           4.95915       8.226575      9.903459
 20            360           4.328653      7.850986      9.447839
 21            360           3.632919      7.44317       8.953455
 22            360           2.86289       7.000535      8.417188
 23            360           2.007167      6.520124      7.83553 
 24            360           1.051126      5.99855       7.20455 
 25            360          -.024406       5.431916      6.51989 
 26            360          -1.245166      4.815723      5.776796
 27            360          -2.646583      4.144765      4.970271
 28            360          -4.278522      3.413014      4.095451
 29            360          -6.211516      2.613532      3.148417
 30            360          -8.538381      1.738435      2.127913
 31            360          -11.32411      .779067       1.038735
 32            360          -14.22252     -.273351      -.101851 
 33            360          -15.34225     -1.425915     -1.253139
 34            360          -13.52589     -2.679581     -2.336127
 35            360          -10.99682     -4.018907     -3.225128
 36            360          -8.846548     -5.390588     -3.773207
 37            360          -7.143503     -6.667669     -3.888772
 38            360          -5.796203     -7.624099     -3.604385
 39            360          -4.721699     -8.008491     -3.051008
 40            360          -3.860189     -7.747882     -2.372508
 41            360          -3.16954      -7.025725     -1.672697
 42            360          -2.619499     -6.102778     -1.010593
 43            360          -2.187655     -5.160709     -.414291 
 44            360          -1.856778     -4.28856       .105659 
 45            360          -1.613046     -3.51982       .547684 
 46            360          -1.444819     -2.861928      .914473 
 47            360          -1.341767     -2.311748      1.210567
 48            360          -1.294213     -1.862592      1.441189
 49            360          -1.292646     -1.507176      1.611714
 50            360          -1.327379     -1.238766      1.727454
 51            360          -1.388357     -1.051558      1.793607
 52            360          -1.46516      -.940732       1.815265
 53            360          -1.547232     -.902378       1.797453
 54            360          -1.624365     -.933389       1.745151
 55            360          -1.68741      -1.031334      1.663305
 56            360          -1.729115     -1.194346      1.556795
 57            360          -1.744909     -1.421         1.430364
 58            360          -1.733435     -1.710193      1.288502
 59            360          -1.696657     -2.061         1.135291
 60            360          -1.639509     -2.472513      .974231 
 61            360          -1.569174     -2.943606      .808056 
 62            360          -1.494191     -3.472634      .638587 
 63            360          -1.423578     -4.056995      .46663  
 64            360          -1.366114     -4.692526      .291963 
 65            360          -1.329843     -5.372669      .11341  
 66            360          -1.321781     -6.087392     -.070992 
 67            360          -1.347784     -6.821932     -.263754 
 68            360          -1.412497     -7.555628     -.467628 
 69            360          -1.519343     -8.261471     -.685276 
 70            360          -1.670478     -8.907408     -.918905 
 71            360          -1.866687     -9.460444     -1.169895
 72            360          -2.107176     -9.893552     -1.438402
 73            360          -2.389221     -10.19318     -1.722953
 74            360          -2.707688     -10.36348     -2.020036
 75            360          -3.054407     -10.42452     -2.323727
 76            360          -3.417524     -10.40566     -2.62545 
 77            360          -3.781022     -10.33791     -2.914012
 78            360          -4.124827     -10.24836     -3.176119
 79            360          -4.426013     -10.15767     -3.397566
 80            360          -4.661561     -10.07979     -3.565117
 81            360          -4.812512     -10.0229      -3.668825
 82            360          -4.868402     -9.990632     -3.704145
 83            360          -4.83009      -9.983277     -3.673093
 84            360          -4.709537     -9.998776     -3.58398 
 85            360          -4.526648     -10.03355     -3.449832
 86            360          -4.30478      -10.08316     -3.286143
 87            360          -4.066735     -10.14289     -3.108689
 88            360          -3.832231     -10.20824     -2.931924
 89            360          -3.616884     -10.27531     -2.768074
 90            360          -3.432217     -10.3411      -2.62683 
 91            360          -3.286186     -10.4037      -2.515416
 92            360          -3.183846     -10.46232     -2.438848
 93            360          -3.127957     -10.51718     -2.400232
 94            360          -3.119452     -10.56938     -2.401036
 95            360          -3.157753     -10.62057     -2.4413  
 96            360          -3.240928     -10.67278     -2.519752
 97            360          -3.365733     -10.72816     -2.633863
 98            360          -3.527539     -10.78885     -2.779832
 99            360          -3.720196     -10.85686     -2.952535
 100           360          -3.935857     -10.93412     -3.14547 
 101           360          -4.164858     -11.02248     -3.350752
 102           360          -4.395737     -11.12388     -3.559223
 103           360          -4.615535     -11.24041     -3.76075 
 104           360          -4.810515     -11.37452     -3.944791
 105           360          -4.967361     -11.52911     -4.10123 
 106           360          -5.074769     -11.70769     -4.22142 
 107           360          -5.125099     -11.91447     -4.29925 
 108           360          -5.11564      -12.15446     -4.331977
 109           360          -5.049031     -12.43359     -4.320586
 110           360          -4.932681     -12.7588      -4.269557
 111           360          -4.777423     -13.13822     -4.186127
 112           360          -4.595826     -13.58144     -4.079246
 113           360          -4.400666     -14.09989     -3.958519
 114           360          -4.203794     -14.70744     -3.833315
 115           360          -4.015503     -15.42125     -3.712146
 116           360          -3.844281     -16.26313     -3.60232 
 117           360          -3.696839     -17.26145     -3.509798
 118           360          -3.578274     -18.4538      -3.439196
 119           360          -3.492278     -19.88974     -3.393853
 120           360          -3.441339     -21.62938     -3.37592 
 121           360          -3.426894     -23.71468     -3.386439
 122           360          -3.449435     -26.00468     -3.425388
 123           360          -3.508549     -27.61319     -3.491703
 124           360          -3.602905     -27.03744     -3.583256
 125           360          -3.730194     -24.8575      -3.696821
 126           360          -3.887013     -22.52906     -3.828044
 127           360          -4.068745     -20.5162      -3.971434
 128           360          -4.269427     -18.8411      -4.120441
 129           360          -4.481682     -17.44719     -4.267646
 130           360          -4.69677      -16.27936     -4.40512 
 131           360          -4.904832     -15.29507     -4.524968
 132           360          -5.095425     -14.46286     -4.62003 
 133           360          -5.258351     -13.7594      -4.684659
 134           360          -5.384739     -13.16725     -4.715413
 135           360          -5.46819      -12.67311     -4.711516
 136           360          -5.505712     -12.26677     -4.674947
 137           360          -5.498164     -11.94027     -4.610156
 138           360          -5.450073     -11.6874      -4.523461
 139           360          -5.368885     -11.50328     -4.422306
 140           360          -5.263879     -11.38414     -4.314528
 141           360          -5.14504      -11.32709     -4.207753
 142           360          -5.022124     -11.33002     -4.108984
 143           360          -4.90401      -11.39151     -4.024361
 144           360          -4.798369     -11.51074     -3.959088
 145           360          -4.711556     -11.68752     -3.917451
 146           360          -4.648675     -11.92224     -3.902904
 147           360          -4.613722     -12.21595     -3.918184
 148           360          -4.609766     -12.57036     -3.965434
 149           360          -4.639137     -12.98798     -4.046319
 150           360          -4.703585     -13.47222     -4.162125
 151           360          -4.804428     -14.02758     -4.313848
 152           360          -4.942668     -14.65986     -4.502256
 153           360          -5.119081     -15.37655     -4.727939
 154           360          -5.33429      -16.18718     -4.991337
 155           360          -5.588809     -17.10391     -5.292744
 156           360          -5.883066     -18.14209     -5.632292
 157           360          -6.217406     -19.32071     -6.009897
 158           360          -6.592057     -20.66187     -6.425166
 159           360          -7.007061     -22.18662     -6.877247
 160           360          -7.462145     -23.89876     -7.364593
 161           360          -7.956516     -25.73189     -7.88463 
 162           360          -8.488533     -27.41441     -8.433271
 163           360          -9.055222     -28.33635     -9.004275
 164           360          -9.651561     -27.99483     -9.588422
 165           360          -10.26949     -26.73556     -10.17259
 166           360          -10.89665     -25.21708     -10.73895
 167           360          -11.51493     -23.78329     -11.26468
 168           360          -12.09941     -22.53139     -11.72302
 169           360          -12.61841     -21.46672     -12.08622
 170           360          -13.03624     -20.57013     -12.33052
 171           360          -13.31936     -19.81938     -12.442  
 172           360          -13.44503     -19.19499     -12.42044
 173           360          -13.40867     -18.68122     -12.2793 
 174           360          -13.22537     -18.2658      -12.04174
 175           360          -12.92461     -17.93933     -11.73483
 176           360          -12.54153     -17.69476     -11.38454
 177           360          -12.10946     -17.52702     -11.01286
 178           360          -11.65572     -17.43266     -10.63678
 179           360          -11.20062     -17.40969     -10.26857
 180           360          -10.75817     -17.45746     -9.916591