                   ****************************************
                     MINI-NUMERICAL ELECTROMAGNETICS CODE
                                   MININEC
                   ****************************************

FREQUENCY (MHZ): 14
    WAVE LENGTH =  21.41429  METERS

ENVIRONMENT (+1 FOR FREE SPACE, -1 FOR GROUND PLANE): -1
 NUMBER OF MEDIA (0 FOR PERFECTLY CONDUCTING GROUND):  1
 RELATIVE DIELECTRIC CONSTANT, CONDUCTIVITY:  13 , .005

NO. OF GEO-OBJECTS: 6

WIRE NO. 1
            COORDINATES                                 END         NO. OF
   X             Y             Z          RADIUS     CONNECTION     SEGMENTS
 4.8768       -5.4864        10                         0
 4.8768        5.4864        10            .001051      0             18

WIRE NO. 2
            COORDINATES                                 END         NO. OF
   X             Y             Z          RADIUS     CONNECTION     SEGMENTS
 4.8768        5.4864        10                         1
 0             5.4864        12.4384       .001051      0              9

WIRE NO. 3
            COORDINATES                                 END         NO. OF
   X             Y             Z          RADIUS     CONNECTION     SEGMENTS
 0             5.4864        12.4384                    2
-4.8768        5.4864        10            .001051      0              9

WIRE NO. 4
            COORDINATES                                 END         NO. OF
   X             Y             Z          RADIUS     CONNECTION     SEGMENTS
-4.8768        5.4864        10                         3
-4.8768       -5.4864        10            .001051      0             18

WIRE NO. 5
            COORDINATES                                 END         NO. OF
   X             Y             Z          RADIUS     CONNECTION     SEGMENTS
-4.8768       -5.4864        10                         4
 0            -5.4864        12.4384       .001051      0              9

WIRE NO. 6
            COORDINATES                                 END         NO. OF
   X             Y             Z          RADIUS     CONNECTION     SEGMENTS
 0            -5.4864        12.4384                    5
 4.8768       -5.4864        10            .001051      1              9

                  **** ANTENNA GEOMETRY ****

WIRE NO.  1 COORDINATES                                 CONNECTION PULSE
X             Y             Z             RADIUS        END1 END2  NO.
 4.8768       -4.8768        10            .001051       0    1   1
 4.8768       -4.2672        10            .001051       1    1   2
 4.8768       -3.6576        10            .001051       1    1   3
 4.8768       -3.048         10            .001051       1    1   4
 4.8768       -2.4384        10            .001051       1    1   5
 4.8768       -1.8288        10            .001051       1    1   6
 4.8768       -1.2192        10            .001051       1    1   7
 4.8768       -.6096         10            .001051       1    1   8
 4.8768        0             10            .001051       1    1   9
 4.8768        .6096         10            .001051       1    1  10
 4.8768        1.2192        10            .001051       1    1  11
 4.8768        1.8288        10            .001051       1    1  12
 4.8768        2.4384        10            .001051       1    1  13
 4.8768        3.048         10            .001051       1    1  14
 4.8768        3.6576        10            .001051       1    1  15
 4.8768        4.2672        10            .001051       1    1  16
 4.8768        4.8768        10            .001051       1    0  17

WIRE NO.  2 COORDINATES                                 CONNECTION PULSE
X             Y             Z             RADIUS        END1 END2  NO.
 4.8768        5.4864        10            .001051       1    2  18
 4.334933      5.4864        10.27093      .001051       2    2  19
 3.793067      5.4864        10.54187      .001051       2    2  20
 3.2512        5.4864        10.8128       .001051       2    2  21
 2.709333      5.4864        11.08373      .001051       2    2  22
 2.167467      5.4864        11.35467      .001051       2    2  23
 1.6256        5.4864        11.6256       .001051       2    2  24
 1.083733      5.4864        11.89653      .001051       2    2  25
 .541867       5.4864        12.16747      .001051       2    0  26

WIRE NO.  3 COORDINATES                                 CONNECTION PULSE
X             Y             Z             RADIUS        END1 END2  NO.
 0             5.4864        12.4384       .001051       2    3  27
-.541867       5.4864        12.16747      .001051       3    3  28
-1.083733      5.4864        11.89653      .001051       3    3  29
-1.6256        5.4864        11.6256       .001051       3    3  30
-2.167467      5.4864        11.35467      .001051       3    3  31
-2.709333      5.4864        11.08373      .001051       3    3  32
-3.2512        5.4864        10.8128       .001051       3    3  33
-3.793067      5.4864        10.54187      .001051       3    3  34
-4.334933      5.4864        10.27093      .001051       3    0  35

WIRE NO.  4 COORDINATES                                 CONNECTION PULSE
X             Y             Z             RADIUS        END1 END2  NO.
-4.8768        5.4864        10            .001051       3    4  36
-4.8768        4.8768        10            .001051       4    4  37
-4.8768        4.2672        10            .001051       4    4  38
-4.8768        3.6576        10            .001051       4    4  39
-4.8768        3.048         10            .001051       4    4  40
-4.8768        2.4384        10            .001051       4    4  41
-4.8768        1.8288        10            .001051       4    4  42
-4.8768        1.2192        10            .001051       4    4  43
-4.8768        .6096         10            .001051       4    4  44
-4.8768        0             10            .001051       4    4  45
-4.8768       -.6096         10            .001051       4    4  46
-4.8768       -1.2192        10            .001051       4    4  47
-4.8768       -1.8288        10            .001051       4    4  48
-4.8768       -2.4384        10            .001051       4    4  49
-4.8768       -3.048         10            .001051       4    4  50
-4.8768       -3.6576        10            .001051       4    4  51
-4.8768       -4.2672        10            .001051       4    4  52
-4.8768       -4.8768        10            .001051       4    0  53

WIRE NO.  5 COORDINATES                                 CONNECTION PULSE
X             Y             Z             RADIUS        END1 END2  NO.
-4.8768       -5.4864        10            .001051       4    5  54
-4.334933     -5.4864        10.27093      .001051       5    5  55
-3.793067     -5.4864        10.54187      .001051       5    5  56
-3.2512       -5.4864        10.8128       .001051       5    5  57
-2.709333     -5.4864        11.08373      .001051       5    5  58
-2.167467     -5.4864        11.35467      .001051       5    5  59
-1.6256       -5.4864        11.6256       .001051       5    5  60
-1.083733     -5.4864        11.89653      .001051       5    5  61
-.541867      -5.4864        12.16747      .001051       5    0  62

WIRE NO.  6 COORDINATES                                 CONNECTION PULSE
X             Y             Z             RADIUS        END1 END2  NO.
 0            -5.4864        12.4384       .001051       5    6  63
 .541867      -5.4864        12.16747      .001051       6    6  64
 1.083733     -5.4864        11.89653      .001051       6    6  65
 1.6256       -5.4864        11.6256       .001051       6    6  66
 2.167467     -5.4864        11.35467      .001051       6    6  67
 2.709333     -5.4864        11.08373      .001051       6    6  68
 3.2512       -5.4864        10.8128       .001051       6    6  69
 3.793067     -5.4864        10.54187      .001051       6    6  70
 4.334933     -5.4864        10.27093      .001051       6    6  71
 4.8768       -5.4864        10            .001051       6    1  72

NO. OF SOURCES :  1
PULSE NO., VOLTAGE MAGNITUDE, PHASE (DEGREES):  9 , 1 , 0
NUMBER OF LOADS 0

********************    SOURCE DATA     ********************
PULSE  9      VOLTAGE = ( 1 , 0 J)
              CURRENT = ( 3.830568E-03 ,  5.971059E-04 J)
              IMPEDANCE = ( 254.8651 , -39.72816 J)
              POWER =  1.915284E-03  WATTS

********************    CURRENT DATA    ********************

WIRE NO.  1 :
PULSE         REAL          IMAGINARY     MAGNITUDE     PHASE
 NO.          (AMPS)        (AMPS)        (AMPS)        (DEGREES)
J             -3.544436E-05 -8.011051E-04  8.018888E-04 -92.53336 
 1             6.327081E-04 -7.462363E-04  9.783599E-04 -49.70654 
 2             1.282081E-03 -6.593693E-04  1.441700E-03 -27.21658 
 3             1.892518E-03 -5.436821E-04  1.969064E-03 -16.02829 
 4             2.445099E-03 -4.023058E-04  2.477975E-03 -9.343481 
 5             2.922688E-03 -2.387628E-04  2.932424E-03 -4.670287 
 6             3.310463E-03 -5.671878E-05  3.310949E-03 -.981563  
 7             3.596383E-03  1.406691E-04  3.599133E-03  2.239928 
 8             3.771566E-03  3.527520E-04  3.788027E-03  5.34329  
 9             3.830568E-03  5.971059E-04  3.876827E-03  8.859919 
 10            3.771560E-03  3.527536E-04  3.788020E-03  5.343324 
 11            3.596370E-03  1.406723E-04  3.599120E-03  2.239987 
 12            3.310444E-03 -5.671410E-05  3.310930E-03 -.981488  
 13            2.922663E-03 -2.387569E-04  2.932399E-03 -4.670211 
 14            2.445069E-03 -4.022988E-04  2.477944E-03 -9.343431 
 15            1.892484E-03 -5.436742E-04  1.969030E-03 -16.02834 
 16            1.282045E-03 -6.593608E-04  1.441664E-03 -27.21694 
 17            6.326700E-04 -7.462275E-04  9.783285E-04 -49.7079  
J             -3.548317E-05 -8.010962E-04  8.018817E-04 -92.53616 
WIRE NO.  2 :
PULSE         REAL          IMAGINARY     MAGNITUDE     PHASE
 NO.          (AMPS)        (AMPS)        (AMPS)        (DEGREES)
J             -3.548317E-05 -8.010962E-04  8.018817E-04 -92.53616 
 19           -6.986181E-04 -8.434972E-04  1.095242E-03 -129.6329 
 20           -1.340671E-03 -8.682520E-04  1.597266E-03 -147.0719 
 21           -1.942128E-03 -8.744127E-04  2.129896E-03 -155.7611 
 22           -2.484710E-03 -8.615075E-04  2.629825E-03 -160.8774 
 23           -2.951915E-03 -8.296710E-04  3.066294E-03 -164.3013 
 24           -3.329522E-03 -7.796499E-04  3.419587E-03 -166.8209 
 25           -3.606002E-03 -7.127790E-04  3.675772E-03 -168.8188 
 26           -3.772773E-03 -6.309321E-04  3.825165E-03 -170.5061 
J             -3.823694E-03 -5.363864E-04  3.861133E-03 -172.0147 
WIRE NO.  3 :
PULSE         REAL          IMAGINARY     MAGNITUDE     PHASE
 NO.          (AMPS)        (AMPS)        (AMPS)        (DEGREES)
J             -3.823694E-03 -5.363864E-04  3.861133E-03 -172.0147 
 28           -3.781963E-03 -4.357044E-04  3.806978E-03 -173.4282 
 29           -3.625094E-03 -3.284865E-04  3.639946E-03 -174.8223 
 30           -3.358800E-03 -2.182071E-04  3.365881E-03 -176.283  
 31           -2.991283E-03 -1.083703E-04  2.993245E-03 -177.9252 
 32           -2.533706E-03 -2.474238E-06  2.533707E-03 -179.944  
 33           -1.999946E-03  9.608566E-05  2.002253E-03  177.2494 
 34           -1.406186E-03  1.841025E-04  1.418187E-03  172.5411 
 35           -7.704224E-04  2.585980E-04  8.126645E-04  161.4453 
J             -1.118836E-04  3.164774E-04  3.356723E-04  109.4699 
WIRE NO.  4 :
PULSE         REAL          IMAGINARY     MAGNITUDE     PHASE
 NO.          (AMPS)        (AMPS)        (AMPS)        (DEGREES)
J             -1.118836E-04  3.164774E-04  3.356723E-04  109.4699 
 37            5.514646E-04  3.707465E-04  6.645044E-04  33.91272 
 38            1.196476E-03  4.239125E-04  1.269353E-03  19.50928 
 39            1.803049E-03  4.740290E-04  1.864320E-03  14.72996 
 40            2.352306E-03  5.194536E-04  2.408978E-03  12.45263 
 41            2.827140E-03  5.587385E-04  2.881824E-03  11.17952 
 42            3.212752E-03  5.906463E-04  3.266594E-03  10.41718 
 43            3.497117E-03  6.141774E-04  3.550639E-03  9.960929 
 44            3.671362E-03  6.285967E-04  3.724787E-03  9.715757 
 45            3.730053E-03  6.334541E-04  3.783458E-03  9.638268 
 46            3.671356E-03  6.285980E-04  3.724780E-03  9.715794 
 47            3.497104E-03  6.141801E-04  3.550627E-03  9.961008 
 48            3.212733E-03  5.906501E-04  3.266576E-03  10.41731 
 49            2.827115E-03  5.587435E-04  2.881801E-03  11.17971 
 50            2.352276E-03  5.194595E-04  2.408950E-03  12.45292 
 51            1.803016E-03  4.740356E-04  1.864289E-03  14.73042 
 52            1.196440E-03  4.239195E-04  1.269321E-03  19.51012 
 53            5.514266E-04  3.707538E-04  6.644770E-04  33.91506 
J             -1.119222E-04  3.164847E-04  3.356920E-04  109.4757 
WIRE NO.  5 :
PULSE         REAL          IMAGINARY     MAGNITUDE     PHASE
 NO.          (AMPS)        (AMPS)        (AMPS)        (DEGREES)
J             -1.119222E-04  3.164847E-04  3.356920E-04  109.4757 
 55           -7.704612E-04  2.586052E-04  8.127036E-04  161.4457 
 56           -1.406224E-03  1.841093E-04  1.418225E-03  172.541  
 57           -1.999980E-03  9.609187E-05  2.002287E-03  177.2493 
 58           -2.533736E-03 -2.468783E-06  2.533738E-03 -179.9442 
 59           -2.991308E-03 -1.083658E-04  2.993270E-03 -177.9253 
 60           -3.358820E-03 -2.182037E-04  3.365900E-03 -176.283  
 61           -3.625107E-03 -3.284843E-04  3.639959E-03 -174.8224 
 62           -3.781970E-03 -4.357035E-04  3.806985E-03 -173.4282 
J             -3.823694E-03 -5.363870E-04  3.861133E-03 -172.0147 
WIRE NO.  6 :
PULSE         REAL          IMAGINARY     MAGNITUDE     PHASE
 NO.          (AMPS)        (AMPS)        (AMPS)        (DEGREES)
J             -3.823694E-03 -5.363870E-04  3.861133E-03 -172.0147 
 64           -3.772766E-03 -6.309339E-04  3.825159E-03 -170.5061 
 65           -3.605988E-03 -7.127823E-04  3.675759E-03 -168.8187 
 66           -3.329503E-03 -7.796547E-04  3.419569E-03 -166.8208 
 67           -2.951890E-03 -8.296770E-04  3.066271E-03 -164.3011 
 68           -2.484680E-03 -8.615146E-04  2.629798E-03 -160.877  
 69           -1.942094E-03 -8.744205E-04  2.129868E-03 -155.7605 
 70           -1.340633E-03 -8.682604E-04  1.597239E-03 -147.0709 
 71           -6.985791E-04 -8.435059E-04  1.095224E-03 -129.6311 
J             -3.544436E-05 -8.011051E-04  8.018888E-04 -92.53336 

********************     FAR FIELD      ********************

ZENITH ANGLE : INITIAL,INCREMENT,NUMBER: 0 , 10 , 10
AZIMUTH ANGLE: INITIAL,INCREMENT,NUMBER: 0 , 10 , 37

********************    PATTERN DATA    ********************
ZENITH        AZIMUTH       VERTICAL      HORIZONTAL    TOTAL
 ANGLE         ANGLE        PATTERN (DB)  PATTERN (DB)  PATTERN (DB)
 0             0            -141.3522     -19.8445      -19.8445 
 10            0            -120.0644     -24.4886      -24.4886 
 20            0            -113.3278     -11.08447     -11.08447
 30            0            -109.1286     -3.719991     -3.719991
 40            0            -106.8429      1.546435      1.546435
 50            0            -106.6912      4.979973      4.979973
 60            0            -109.0686      6.570684      6.570684
 70            0            -112.5876      5.997631      5.997631
 80            0            -113.5478      1.875636      1.875636
 90            0            -999          -999          -999     
 0             10           -35.05108     -19.97748     -19.8445 
 10            10           -29.08281     -24.8409      -23.45302
 20            10           -23.18124     -11.41707     -11.13698
 30            10           -17.88257     -4.12498      -3.945903
 40            10           -13.36718      1.070601      1.22417 
 50            10           -11.11049      4.453582      4.572546
 60            10           -11.33569      6.008634      6.087953
 70            10           -14.15942      5.410773      5.458457
 80            10           -19.87937      1.273728      1.306904
 90            10           -999          -999          -999     
 0             20           -29.16346     -20.38479     -19.8445 
 10            20           -23.66511     -25.22433     -21.36482
 20            20           -17.78524     -12.38352     -11.28339
 30            20           -12.4724      -5.396645     -4.619058
 40            20           -7.931625     -.4619         .253503 
 50            20           -5.664044      2.735982      3.322303
 60            20           -5.889449      4.160159      4.5696  
 70            20           -8.72213       3.471119      3.72561 
 80            20           -14.45306     -.721284      -.541161 
 90            20           -999          -297.8875     -297.7645
 0             30           -25.8651      -21.09389     -19.8445 
 10            30           -21.17807     -23.91804     -19.32517
 20            30           -15.35178     -13.78467     -11.48762
 30            30           -10.01984     -7.720375     -5.709364
 40            30           -5.43204      -3.473938     -1.333255
 50            30           -3.141507     -.773842       1.212015
 60            30           -3.362187      .288922       1.846559
 70            30           -6.202539     -.656691       .411602 
 80            30           -11.94316     -5.006829     -4.206075
 90            30           -999          -999          -999     
 0             40           -23.68315     -22.15943     -19.8445 
 10            40           -20.18819     -21.11957     -17.61866
 20            40           -14.49048     -14.90728     -11.68358
 30            40           -9.145659     -11.34125     -7.095859
 40            40           -4.478938     -9.284287     -3.238059
 50            40           -2.143214     -8.513741     -1.24188 
 60            40           -2.344229     -9.117948     -1.515666
 70            40           -5.178141     -11.41083     -4.250638
 80            40           -10.91343     -16.65889     -9.887889
 90            40           -999          -999          -999     
 0             50           -22.15942     -23.68316     -19.8445 
 10            50           -20.2676      -18.42295     -16.23776
 20            50           -14.89331     -14.68548     -11.77785
 30            50           -9.577053     -14.77036     -8.429406
 40            50           -4.776288     -15.12761     -4.39315 
 50            50           -2.350281     -10.36635     -1.713556
 60            50           -2.495865     -6.642232     -1.081638
 70            50           -5.284947     -5.915838     -2.578647
 80            50           -10.9756      -9.352511     -7.078368
 90            50           -999          -999          -999     
 0             60           -21.09389     -25.86511     -19.8445 
 10            60           -21.11406     -16.38394     -15.12424
 20            60           -16.61254     -13.35438     -11.67452
 30            60           -11.51818     -12.80498     -9.10379 
 40            60           -6.473885     -7.100252     -3.765486
 50            60           -3.854436     -1.666234      .386347 
 60            60           -3.859617      1.137143      2.331232
 70            60           -6.512034      1.252865      1.92471 
 80            60           -12.06451     -2.510925     -2.054465
 90            60           -999          -295.3847     -295.2458
 0             70           -20.38479     -29.16348     -19.8445 
 10            70           -21.94643     -15.0273      -14.22365
 20            70           -19.65138     -12.01052     -11.32068
 30            70           -15.9229      -9.751561     -8.812192
 40            70           -10.43275     -3.020639     -2.296436
 50            70           -7.315006      2.050245      2.525866
 60            70           -6.934633      4.574565      4.871019
 70            70           -9.196119      4.516413      4.697319
 80            70           -14.34454      .654578       .789814 
 90            70           -999          -999          -999     
 0             80           -19.97747     -35.05112     -19.8445 
 10            80           -21.27195     -14.28652     -13.494  
 20            80           -20.83263     -11.18422     -10.73713
 30            80           -22.35966     -8.121482     -7.960821
 40            80           -20.86504     -1.147442     -1.10134 
 50            80           -15.95933      3.81253       3.858063
 60            80           -13.88031      6.248826      6.29078 
 70            80           -14.57209      6.130707      6.167491
 80            80           -18.18699      2.232659      2.271911
 90            80           -999          -999          -999     
 0             90           -19.8445      -141.3522     -19.8445 
 10            90           -19.126       -14.08952     -12.90495
 20            90           -16.96447     -10.97759     -10.00172
 30            90           -14.70622     -7.845404     -7.031843
 40            90           -13.80106     -.698069      -.490545 
 50            90           -15.00354      4.312918      4.363455
 60            90           -18.82763      6.766379      6.778341
 70            90           -22.03829      6.654047      6.659912
 80            90           -21.76115      2.757341      2.772658
 90            90           -999          -298.2635     -298.243 
 0             100          -19.97748     -35.05108     -19.8445 
 10            100          -16.92841     -14.34206     -12.43519
 20            100          -13.35559     -11.3137      -9.20543 
 30            100          -9.518322     -8.892845     -6.184033
 40            100          -6.88147      -1.552616     -.436071 
 50            100          -6.288969      3.682126      4.098688
 60            100          -8.216106      6.256359      6.408729
 70            100          -12.96108      6.213716      6.265918
 80            100          -18.23567      2.354841      2.392585
 90            100          -999          -999          -999     
 0             110          -20.38479     -29.16346     -19.8445 
 10            110          -15.31204     -14.85935     -12.0695 
 20            110          -11.01694     -11.891       -8.42172 
 30            110          -6.630817     -11.3401      -5.365863
 40            110          -3.460887     -4.072705     -.745731 
 50            110          -2.394723      1.688799      3.120584
 60            110          -3.83366       4.548503      5.137085
 70            110          -8.121649      4.668339      4.89098 
 80            110          -14.30177      .8972         1.026443
 90            110          -999          -999          -999     
 0             120          -21.09389     -25.8651      -19.8445 
 10            120          -14.38445     -15.27321     -11.79583
 20            120          -9.700718     -12.02673     -7.699527
 30            120          -5.063222     -13.53585     -4.486002
 40            120          -1.637683     -9.703458     -1.007703
 50            120          -.343592      -2.646984      1.665963
 60            120          -1.549357      .933285       2.8773  
 70            120          -5.588551      1.431957      2.21865 
 80            120          -11.94663     -2.145151     -1.712797
 90            120          -999          -297.6161     -297.5963
 0             130          -22.15943     -23.68315     -19.8445 
 10            130          -14.15871     -15.12043     -11.6027 
 20            130          -9.249121     -11.10453     -7.068184
 30            130          -4.478263     -10.57687     -3.524654
 40            130          -.903173      -13.74688     -.683201 
 50            130           .531547      -14.02533      .681033 
 60            130          -.525916      -7.875449      .207956 
 70            130          -4.399367     -5.919038     -2.082769
 80            130          -10.80157     -8.831543     -6.695496
 90            130          -999          -999          -999     
 0             140          -23.68316     -22.15942     -19.8445 
 10            140          -14.68629     -14.29767     -11.47734
 20            140          -9.638546     -9.471559     -6.54395 
 30            140          -4.792379     -6.502779     -2.553616
 40            140          -1.121616     -5.06749       .349269 
 50            140           .409542      -5.188623      1.46648 
 60            140          -.541675      -6.991513      .344904 
 70            140          -4.291438     -10.67836     -3.393172
 80            140          -10.69757     -17.13272     -9.808275
 90            140          -999          -296.2555     -296.1341
 0             150          -25.86511     -21.09389     -19.8445 
 10            150          -16.12807     -13.19006     -11.40492
 20            150          -10.99423     -7.852168     -6.134733
 30            150          -6.105267     -3.628603     -1.68243 
 40            150          -2.371992     -.549323       1.644567
 50            150          -.773332       1.227922      3.351863
 60            150          -1.646812      1.537835      3.241406
 70            150          -5.302202      .013043       1.132677
 80            150          -11.69648     -4.710117     -3.917748
 90            150          -999          -299.5995     -299.576 
 0             160          -29.16348     -20.38479     -19.8445 
 10            160          -18.91495     -12.2099      -11.36933
 20            160          -13.72883     -6.614467     -5.843184
 30            160          -8.816513     -1.7899       -1.004218
 40            160          -5.043911      1.966334      2.754729
 50            160          -3.400198      4.365512      5.037241
 60            160          -4.21974       5.213506      5.682123
 70            160          -7.807022      4.120326      4.390396
 80            160          -14.18471     -.316152      -.141503 
 90            160          -999          -293.5956     -293.5781
 0             170          -35.05112     -19.97747     -19.8445 
 10            170          -24.50221     -11.57112     -11.35542
 20            170          -19.28792     -5.862036     -5.669056
 30            170          -14.36428     -.76335       -.577833 
 40            170          -10.57005      3.291347      3.466278
 50            170          -8.900451      5.94504       6.085068
 60            170          -9.688084      6.998014      7.090178
 70            170          -13.2338       6.059739      6.110542
 80            170          -19.59789      1.721733      1.753665
 90            170          -999          -999          -999     
 0             180          -141.3522     -19.8445      -19.8445 
 10            180          -120.5734     -11.35214     -11.35214
 20            180          -113.3896     -5.611205     -5.611205
 30            180          -109.0247     -.432808      -.432808 
 40            180          -106.6693      3.708443      3.708443
 50            180          -106.485       6.434168      6.434168
 60            180          -108.8692      7.543856      7.543856
 70            180          -112.6637      6.64769       6.64769 
 80            180          -113.8444      2.336124      2.336124
 90            180          -999          -298.4251     -298.4193
 0             190          -35.05108     -19.97748     -19.8445 
 10            190          -24.50214     -11.57113     -11.35543
 20            190          -19.28776     -5.862049     -5.669062
 30            190          -14.36406     -.763364      -.577837 
 40            190          -10.56984      3.291332      3.466273
 50            190          -8.900272      5.945025      6.085059
 60            190          -9.687953      6.998         7.090166
 70            190          -13.23375      6.059724      6.110528
 80            190          -19.5979       1.721719      1.753651
 90            190          -999          -298.1076     -298.0658
 0             200          -29.16346     -20.38479     -19.8445 
 10            200          -18.91492     -12.20993     -11.36935
 20            200          -13.72876     -6.614494     -5.843195
 30            200          -8.816412     -1.78993      -1.004226
 40            200          -5.043816      1.966301      2.754718
 50            200          -3.400119      4.365478      5.037223
 60            200          -4.219685      5.213472      5.682099
 70            200          -7.807004      4.120292      4.390365
 80            200          -14.18472     -.316185      -.141535 
 90            200          -999          -999          -999     
 0             210          -25.8651      -21.09389     -19.8445 
 10            210          -16.12806     -13.19009     -11.40494
 20            210          -10.99419     -7.85221      -6.134749
 30            210          -6.105211     -3.628654     -1.682442
 40            210          -2.371941     -.549382       1.644552
 50            210          -.773293       1.227856      3.351838
 60            210          -1.646788      1.537765      3.241367
 70            210          -5.302201      .01297        1.132621
 80            210          -11.6965      -4.710191     -3.917812
 90            210          -999          -999          -999     
 0             220          -23.68315     -22.15943     -19.8445 
 10            220          -14.6863      -14.29771     -11.47736
 20            220          -9.63853      -9.471615     -6.543971
 30            220          -4.79235      -6.50286      -2.553631
 40            220          -1.121592     -5.067606      .349253 
 50            220           .409556      -5.188783      1.466457
 60            220          -.541672      -6.991728      .344867 
 70            220          -4.29145      -10.67864     -3.393234
 80            220          -10.69759     -17.13306     -9.808355
 90            220          -999          -999          -999     
 0             230          -22.15942     -23.68316     -19.8445 
 10            230          -14.15872     -15.12047     -11.60273
 20            230          -9.249121     -11.10459     -7.068208
 30            230          -4.478255     -10.577       -3.524671
 40            230          -.903171      -13.74713     -.683211 
 50            230           .53154       -14.02519      .681031 
 60            230          -.525932      -7.87527       .207971 
 70            230          -4.399393     -5.918902     -2.082728
 80            230          -10.8016      -8.831429     -6.695438
 90            230          -999          -296.2772     -296.214 
 0             240          -21.09389     -25.86511     -19.8445 
 10            240          -14.38447     -15.27323     -11.79586
 20            240          -9.700734     -12.02677     -7.699553
 30            240          -5.063233     -13.53592     -4.486021
 40            240          -1.637703     -9.703349     -1.007705
 50            240          -.343621      -2.646894      1.665978
 60            240          -1.549395      .933352       2.877329
 70            240          -5.588595      1.432012      2.218688
 80            240          -11.94667     -2.145103     -1.712758
 90            240          -999          -999          -999     
 0             250          -20.38479     -29.16348     -19.8445 
 10            250          -15.31208     -14.85936     -12.06952
 20            250          -11.01697     -11.89102     -8.421745
 30            250          -6.630852     -11.34007     -5.365882
 40            250          -3.460934     -4.072649     -.74573  
 50            250          -2.394783      1.688841      3.120598
 60            250          -3.83373       4.548537      5.137105
 70            250          -8.121725      4.668367      4.891003
 80            250          -14.30184      .897225       1.026465
 90            250          -999          -296.1489     -296.1289
 0             260          -19.97747     -35.05112     -19.8445 
 10            260          -16.92846     -14.34206     -12.4352 
 20            260          -13.35564     -11.3137      -9.20545 
 30            260          -9.518388     -8.892824     -6.184052
 40            260          -6.881563     -1.552592     -.436073 
 50            260          -6.289087      3.682144      4.098694
 60            260          -8.216247      6.256374      6.408738
 70            260          -12.96123      6.213728      6.265929
 80            260          -18.23583      2.354853      2.392595
 90            260          -999          -999          -999     
 0             270          -19.8445      -141.3522     -19.8445 
 10            270          -19.12604     -14.08951     -12.90495
 20            270          -16.96453     -10.97758     -10.00173
 30            270          -14.70634     -7.845401     -7.031862
 40            270          -13.80128     -.698067      -.490554 
 50            270          -15.0039       4.312919      4.363451
 60            270          -18.82814      6.76638       6.77834 
 70            270          -22.03863      6.654048      6.659912
 80            270          -21.76135      2.757341      2.772657
 90            270          -999          -999          -999     
 0             280          -19.97748     -35.05108     -19.8445 
 10            280          -21.27195     -14.28652     -13.49399
 20            280          -20.8326      -11.18422     -10.73712
 30            280          -22.35965     -8.121498     -7.960837
 40            280          -20.86479     -1.147462     -1.101357
 50            280          -15.95905      3.812514      3.858049
 60            280          -13.8801       6.248812      6.290768
 70            280          -14.57197      6.130694      6.16748 
 80            280          -18.18699      2.232648      2.271899
 90            280          -999          -999          -999     
 0             290          -20.38479     -29.16346     -19.8445 
 10            290          -21.94635     -15.0273      -14.22363
 20            290          -19.65124     -12.01052     -11.32065
 30            290          -15.92278     -9.751596     -8.812197
 40            290          -10.43265     -3.020686     -2.29646 
 50            290          -7.314904      2.050206      2.525842
 60            290          -6.934539      4.574532      4.870995
 70            290          -9.196046      4.516385      4.697295
 80            290          -14.34451      .654553       .789791 
 90            290          -999          -999          -999     
 0             300          -21.09389     -25.8651      -19.8445 
 10            300          -21.11394     -16.38393     -15.12421
 20            300          -16.61244     -13.35436     -11.67448
 30            300          -11.51813     -12.805       -9.103774
 40            300          -6.473845     -7.100344     -3.765507
 50            300          -3.85439      -1.666312      .386316 
 60            300          -3.859567      1.137079      2.331195
 70            300          -6.511985      1.25281       1.92467 
 80            300          -12.06447     -2.510975     -2.054505
 90            300          -999          -999          -999     
 0             310          -22.15943     -23.68315     -19.8445 
 10            310          -20.26748     -18.42294     -16.23771
 20            310          -14.89324     -14.68543     -11.77779
 30            310          -9.577045     -14.77024     -8.429372
 40            310          -4.776283     -15.12761     -4.393146
 50            310          -2.350268     -10.36653     -1.713568
 60            310          -2.495842     -6.642388     -1.081665
 70            310          -5.284914     -5.91597      -2.57869 
 80            310          -10.97556     -9.352629     -7.07842 
 90            310          -999          -999          -999     
 0             320          -23.68316     -22.15942     -19.8445 
 10            320          -20.18807     -21.11954     -17.61858
 20            320          -14.49044     -14.90719     -11.68352
 30            320          -9.145683     -11.34112     -7.095823
 40            320          -4.478963     -9.284104     -3.238033
 50            320          -2.143227     -8.513511     -1.241847
 60            320          -2.344227     -9.117678     -1.515617
 70            320          -5.178119     -11.41053     -4.250563
 80            320          -10.91338     -16.65857     -9.887785
 90            320          -999          -999          -999     
 0             330          -25.86511     -21.09389     -19.8445 
 10            330          -21.17795     -23.91798     -19.32507
 20            330          -15.35176     -13.78459     -11.48757
 30            330          -10.0199      -7.720294     -5.709335
 40            330          -5.4321       -3.473856     -1.333228
 50            330          -3.14155      -.773759       1.212051
 60            330          -3.362209      .289002       1.846609
 70            330          -6.202527     -.656613       .411666 
 80            330          -11.9431      -5.006752     -4.206002
 90            330          -999          -999          -999     
 0             340          -29.16348     -20.38479     -19.8445 
 10            340          -23.66497     -25.22425     -21.3647 
 20            340          -17.78524     -12.38347     -11.28335
 30            340          -12.47251     -5.3966       -4.619038
 40            340          -7.93174      -.461858       .253521 
 50            340          -5.664133      2.736022      3.322327
 60            340          -5.889503      4.160198      4.56963 
 70            340          -8.72213       3.471155      3.725644
 80            340          -14.45299     -.721249      -.541125 
 90            340          -999          -999          -999     
 0             350          -35.05112     -19.97747     -19.8445 
 10            350          -29.08255     -24.84085     -23.45291
 20            350          -23.18126     -11.41704     -11.13696
 30            350          -17.88282     -4.12496      -3.945893
 40            350          -13.36743      1.07062       1.22418 
 50            350          -11.11069      4.453599      4.572557
 60            350          -11.33582      6.00865       6.087967
 70            350          -14.15944      5.410788      5.458472
 80            350          -19.87924      1.273743      1.306919
 90            350          -999          -299.8934     -299.8799
 0             360          -141.3522     -19.8445      -19.8445 
 10            360          -120.0644     -24.4886      -24.4886 
 20            360          -113.3278     -11.08447     -11.08447
 30            360          -109.1286     -3.719991     -3.719991
 40            360          -106.8429      1.546435      1.546435
 50            360          -106.6912      4.979973      4.979973
 60            360          -109.0686      6.570684      6.570684
 70            360          -112.5876      5.997631      5.997631
 80            360          -113.5478      1.875636      1.875636
 90            360          -999          -999          -999     
