                   ****************************************
                     MINI-NUMERICAL ELECTROMAGNETICS CODE
                                   MININEC
                   ****************************************

FREQUENCY (MHZ): 7
    WAVE LENGTH =  42.82857  METERS

ENVIRONMENT (+1 FOR FREE SPACE, -1 FOR GROUND PLANE): -1
 NUMBER OF MEDIA (0 FOR PERFECTLY CONDUCTING GROUND):  1
 RELATIVE DIELECTRIC CONSTANT, CONDUCTIVITY:  13 , .005

NO. OF GEO-OBJECTS: 6

WIRE NO. 1
            COORDINATES                                 END         NO. OF
   X             Y             Z          RADIUS     CONNECTION     SEGMENTS
 4.8768       -5.4864        10                         0
 4.8768        5.4864        10            .001051      0             18

WIRE NO. 2
            COORDINATES                                 END         NO. OF
   X             Y             Z          RADIUS     CONNECTION     SEGMENTS
 4.8768        5.4864        10                         1
 0             5.4864        12.4384       .001051      0              9

WIRE NO. 3
            COORDINATES                                 END         NO. OF
   X             Y             Z          RADIUS     CONNECTION     SEGMENTS
 0             5.4864        12.4384                    2
-4.8768        5.4864        10            .001051      0              9

WIRE NO. 4
            COORDINATES                                 END         NO. OF
   X             Y             Z          RADIUS     CONNECTION     SEGMENTS
-4.8768        5.4864        10                         3
-4.8768       -5.4864        10            .001051      0             18

WIRE NO. 5
            COORDINATES                                 END         NO. OF
   X             Y             Z          RADIUS     CONNECTION     SEGMENTS
-4.8768       -5.4864        10                         4
 0            -5.4864        12.4384       .001051      0              9

WIRE NO. 6
            COORDINATES                                 END         NO. OF
   X             Y             Z          RADIUS     CONNECTION     SEGMENTS
 0            -5.4864        12.4384                    5
 4.8768       -5.4864        10            .001051      1              9

                  **** ANTENNA GEOMETRY ****

WIRE NO.  1 COORDINATES                                 CONNECTION PULSE
X             Y             Z             RADIUS        END1 END2  NO.
 4.8768       -4.8768        10            .001051       0    1   1
 4.8768       -4.2672        10            .001051       1    1   2
 4.8768       -3.6576        10            .001051       1    1   3
 4.8768       -3.048         10            .001051       1    1   4
 4.8768       -2.4384        10            .001051       1    1   5
 4.8768       -1.8288        10            .001051       1    1   6
 4.8768       -1.2192        10            .001051       1    1   7
 4.8768       -.6096         10            .001051       1    1   8
 4.8768        0             10            .001051       1    1   9
 4.8768        .6096         10            .001051       1    1  10
 4.8768        1.2192        10            .001051       1    1  11
 4.8768        1.8288        10            .001051       1    1  12
 4.8768        2.4384        10            .001051       1    1  13
 4.8768        3.048         10            .001051       1    1  14
 4.8768        3.6576        10            .001051       1    1  15
 4.8768        4.2672        10            .001051       1    1  16
 4.8768        4.8768        10            .001051       1    0  17

WIRE NO.  2 COORDINATES                                 CONNECTION PULSE
X             Y             Z             RADIUS        END1 END2  NO.
 4.8768        5.4864        10            .001051       1    2  18
 4.334933      5.4864        10.27093      .001051       2    2  19
 3.793067      5.4864        10.54187      .001051       2    2  20
 3.2512        5.4864        10.8128       .001051       2    2  21
 2.709333      5.4864        11.08373      .001051       2    2  22
 2.167467      5.4864        11.35467      .001051       2    2  23
 1.6256        5.4864        11.6256       .001051       2    2  24
 1.083733      5.4864        11.89653      .001051       2    2  25
 .541867       5.4864        12.16747      .001051       2    0  26

WIRE NO.  3 COORDINATES                                 CONNECTION PULSE
X             Y             Z             RADIUS        END1 END2  NO.
 0             5.4864        12.4384       .001051       2    3  27
-.541867       5.4864        12.16747      .001051       3    3  28
-1.083733      5.4864        11.89653      .001051       3    3  29
-1.6256        5.4864        11.6256       .001051       3    3  30
-2.167467      5.4864        11.35467      .001051       3    3  31
-2.709333      5.4864        11.08373      .001051       3    3  32
-3.2512        5.4864        10.8128       .001051       3    3  33
-3.793067      5.4864        10.54187      .001051       3    3  34
-4.334933      5.4864        10.27093      .001051       3    0  35

WIRE NO.  4 COORDINATES                                 CONNECTION PULSE
X             Y             Z             RADIUS        END1 END2  NO.
-4.8768        5.4864        10            .001051       3    4  36
-4.8768        4.8768        10            .001051       4    4  37
-4.8768        4.2672        10            .001051       4    4  38
-4.8768        3.6576        10            .001051       4    4  39
-4.8768        3.048         10            .001051       4    4  40
-4.8768        2.4384        10            .001051       4    4  41
-4.8768        1.8288        10            .001051       4    4  42
-4.8768        1.2192        10            .001051       4    4  43
-4.8768        .6096         10            .001051       4    4  44
-4.8768        0             10            .001051       4    4  45
-4.8768       -.6096         10            .001051       4    4  46
-4.8768       -1.2192        10            .001051       4    4  47
-4.8768       -1.8288        10            .001051       4    4  48
-4.8768       -2.4384        10            .001051       4    4  49
-4.8768       -3.048         10            .001051       4    4  50
-4.8768       -3.6576        10            .001051       4    4  51
-4.8768       -4.2672        10            .001051       4    4  52
-4.8768       -4.8768        10            .001051       4    0  53

WIRE NO.  5 COORDINATES                                 CONNECTION PULSE
X             Y             Z             RADIUS        END1 END2  NO.
-4.8768       -5.4864        10            .001051       4    5  54
-4.334933     -5.4864        10.27093      .001051       5    5  55
-3.793067     -5.4864        10.54187      .001051       5    5  56
-3.2512       -5.4864        10.8128       .001051       5    5  57
-2.709333     -5.4864        11.08373      .001051       5    5  58
-2.167467     -5.4864        11.35467      .001051       5    5  59
-1.6256       -5.4864        11.6256       .001051       5    5  60
-1.083733     -5.4864        11.89653      .001051       5    5  61
-.541867      -5.4864        12.16747      .001051       5    0  62

WIRE NO.  6 COORDINATES                                 CONNECTION PULSE
X             Y             Z             RADIUS        END1 END2  NO.
 0            -5.4864        12.4384       .001051       5    6  63
 .541867      -5.4864        12.16747      .001051       6    6  64
 1.083733     -5.4864        11.89653      .001051       6    6  65
 1.6256       -5.4864        11.6256       .001051       6    6  66
 2.167467     -5.4864        11.35467      .001051       6    6  67
 2.709333     -5.4864        11.08373      .001051       6    6  68
 3.2512       -5.4864        10.8128       .001051       6    6  69
 3.793067     -5.4864        10.54187      .001051       6    6  70
 4.334933     -5.4864        10.27093      .001051       6    6  71
 4.8768       -5.4864        10            .001051       6    1  72

NO. OF SOURCES :  1
PULSE NO., VOLTAGE MAGNITUDE, PHASE (DEGREES):  9 , 1 , 0
NUMBER OF LOADS 0

********************    SOURCE DATA     ********************
PULSE  9      VOLTAGE = ( 1 , 0 J)
              CURRENT = ( 6.288876E-03 ,  1.953757E-03 J)
              IMPEDANCE = ( 145.0148 , -45.05157 J)
              POWER =  3.144438E-03  WATTS

********************    CURRENT DATA    ********************

WIRE NO.  1 :
PULSE         REAL          IMAGINARY     MAGNITUDE     PHASE
 NO.          (AMPS)        (AMPS)        (AMPS)        (DEGREES)
J              4.381607E-03  8.243214E-04  4.458473E-03  10.65465 
 1             4.766090E-03  9.589825E-04  4.861611E-03  11.37655 
 2             5.111765E-03  1.092405E-03  5.227187E-03  12.0629  
 3             5.416776E-03  1.223631E-03  5.553264E-03  12.72927 
 4             5.678919E-03  1.351870E-03  5.837608E-03  13.39008 
 5             5.896214E-03  1.476516E-03  6.078275E-03  14.05876 
 6             6.066993E-03  1.597247E-03  6.273723E-03  14.74948 
 7             6.189937E-03  1.714305E-03  6.422941E-03  15.48009 
 8             6.264091E-03  1.829444E-03  6.525772E-03  16.28058 
 9             6.288876E-03  1.953757E-03  6.585372E-03  17.25839 
 10            6.264100E-03  1.829435E-03  6.525778E-03  16.28049 
 11            6.189956E-03  1.714288E-03  6.422953E-03  15.47989 
 12            6.067021E-03  1.597220E-03  6.273743E-03  14.74918 
 13            5.896250E-03  1.476481E-03  6.078303E-03  14.05836 
 14            5.678964E-03  1.351828E-03  5.837642E-03  13.38957 
 15            5.416829E-03  1.223581E-03  5.553304E-03  12.72864 
 16            5.111826E-03  1.092347E-03  5.227235E-03  12.06213 
 17            4.766158E-03  9.589175E-04  4.861665E-03  11.37564 
J              4.381681E-03  8.242499E-04  4.458533E-03  10.65356 
WIRE NO.  2 :
PULSE         REAL          IMAGINARY     MAGNITUDE     PHASE
 NO.          (AMPS)        (AMPS)        (AMPS)        (DEGREES)
J              4.381681E-03  8.242499E-04  4.458533E-03  10.65356 
 19            3.982094E-03  6.903048E-04  4.041484E-03  9.834615 
 20            3.552008E-03  5.503787E-04  3.594396E-03  8.807856 
 21            3.095363E-03  4.058698E-04  3.121859E-03  7.470114 
 22            2.615726E-03  2.580102E-04  2.628420E-03  5.633323 
 23            2.116765E-03  1.080237E-04  2.119519E-03  2.921409 
 24            1.602277E-03 -4.286648E-05  1.602850E-03 -1.532496 
 25            1.076173E-03 -1.934415E-04  1.093420E-03 -10.19007 
 26            5.424581E-04 -3.424912E-04  6.415302E-04 -32.26704 
J              5.213850E-06 -4.887959E-04  4.888238E-04 -89.38887 
WIRE NO.  3 :
PULSE         REAL          IMAGINARY     MAGNITUDE     PHASE
 NO.          (AMPS)        (AMPS)        (AMPS)        (DEGREES)
J              5.213850E-06 -4.887959E-04  4.888238E-04 -89.38887 
 28           -5.319899E-04 -6.320161E-04  8.261099E-04 -130.0885 
 29           -1.065609E-03 -7.703035E-04  1.314873E-03 -144.1377 
 30           -1.591566E-03 -9.026009E-04  1.829691E-03 -150.4418 
 31           -2.105857E-03 -1.027867E-03  2.343319E-03 -153.983  
 32           -2.604575E-03 -1.145109E-03  2.845187E-03 -156.2672 
 33           -3.083925E-03 -1.253391E-03  3.328901E-03 -157.8818 
 34           -3.540243E-03 -1.351832E-03  3.789561E-03 -159.1008 
 35           -3.969963E-03 -1.439593E-03  4.222918E-03 -160.0683 
J             -4.369147E-03 -1.515635E-03  4.624565E-03 -160.8686 
WIRE NO.  4 :
PULSE         REAL          IMAGINARY     MAGNITUDE     PHASE
 NO.          (AMPS)        (AMPS)        (AMPS)        (DEGREES)
J             -4.369147E-03 -1.515635E-03  4.624565E-03 -160.8686 
 37           -4.753163E-03 -1.588904E-03  5.011704E-03 -161.5161 
 38           -5.098418E-03 -1.654969E-03  5.360298E-03 -162.0163 
 39           -5.403059E-03 -1.713344E-03  5.668209E-03 -162.4059 
 40           -5.664883E-03 -1.763550E-03  5.933044E-03 -162.708  
 41           -5.881914E-03 -1.805182E-03  6.152690E-03 -162.9385 
 42           -6.052486E-03 -1.837908E-03  6.325385E-03 -163.1085 
 43           -6.175281E-03 -1.861467E-03  6.449741E-03 -163.2252 
 44           -6.249345E-03 -1.875676E-03  6.524758E-03 -163.2934 
 45           -6.274100E-03 -1.880421E-03  6.549833E-03 -163.3159 
 46           -6.249354E-03 -1.875667E-03  6.524764E-03 -163.2935 
 47           -6.175299E-03 -1.861450E-03  6.449753E-03 -163.2254 
 48           -6.052513E-03 -1.837882E-03  6.325404E-03 -163.1088 
 49           -5.881950E-03 -1.805149E-03  6.152715E-03 -162.9389 
 50           -5.664928E-03 -1.763508E-03  5.933074E-03 -162.7085 
 51           -5.403112E-03 -1.713294E-03  5.668244E-03 -162.4065 
 52           -5.098479E-03 -1.654912E-03  5.360338E-03 -162.0171 
 53           -4.753231E-03 -1.588840E-03  5.011748E-03 -161.517  
J             -4.369222E-03 -1.515565E-03  4.624612E-03 -160.8697 
WIRE NO.  5 :
PULSE         REAL          IMAGINARY     MAGNITUDE     PHASE
 NO.          (AMPS)        (AMPS)        (AMPS)        (DEGREES)
J             -4.369222E-03 -1.515565E-03  4.624612E-03 -160.8697 
 55           -3.970044E-03 -1.439517E-03  4.222968E-03 -160.0696 
 56           -3.540330E-03 -1.351751E-03  3.789613E-03 -159.1024 
 57           -3.084017E-03 -1.253304E-03  3.328954E-03 -157.8838 
 58           -2.604672E-03 -1.145019E-03  2.845239E-03 -156.2696 
 59           -2.105958E-03 -1.027773E-03  2.343369E-03 -153.9862 
 60           -1.591670E-03 -9.025043E-04  1.829734E-03 -150.446  
 61           -1.065716E-03 -7.702051E-04  1.314902E-03 -144.1439 
 62           -5.320979E-04 -6.319165E-04  8.261033E-04 -130.0987 
J              5.105503E-06 -4.886959E-04  4.887226E-04 -89.40144 
WIRE NO.  6 :
PULSE         REAL          IMAGINARY     MAGNITUDE     PHASE
 NO.          (AMPS)        (AMPS)        (AMPS)        (DEGREES)
J              5.105503E-06 -4.886959E-04  4.887226E-04 -89.40144 
 64            5.423500E-04 -3.423912E-04  6.413855E-04 -32.26465 
 65            1.076066E-03 -1.933425E-04  1.093298E-03 -10.18595 
 66            1.602173E-03 -4.276910E-05  1.602743E-03 -1.529115 
 67            2.116664E-03  1.081186E-04  2.119424E-03  2.924111 
 68            2.615629E-03  2.581019E-04  2.628333E-03  5.63552  
 69            3.095271E-03  4.059576E-04  3.121779E-03  7.471931 
 70            3.551921E-03  5.504618E-04  3.594322E-03  8.809377 
 71            3.982013E-03  6.903825E-04  4.041417E-03  9.835896 
J              4.381607E-03  8.243214E-04  4.458473E-03  10.65465 

********************     FAR FIELD      ********************

ZENITH ANGLE : INITIAL,INCREMENT,NUMBER: 0 , 10 , 10
AZIMUTH ANGLE: INITIAL,INCREMENT,NUMBER: 0 , 10 , 37

********************    PATTERN DATA    ********************
ZENITH        AZIMUTH       VERTICAL      HORIZONTAL    TOTAL
 ANGLE         ANGLE        PATTERN (DB)  PATTERN (DB)  PATTERN (DB)
 0             0            -93.53534      6.607958      6.607958
 10            0            -93.67847      6.590495      6.590495
 20            0            -94.13984      6.453136      6.453136
 30            0            -94.99612      6.13339       6.13339 
 40            0            -96.36221      5.530079      5.530079
 50            0            -98.37385      4.495657      4.495657
 60            0            -101.1556      2.794334      2.794334
 70            0            -104.7817     -.054373      -.054373 
 80            0            -109.7115     -5.534614     -5.534614
 90            0            -999          -999          -999     
 0             10           -8.598905      6.474995      6.607958
 10            10           -8.831584      6.459601      6.586168
 20            10           -9.477037      6.324654      6.437366
 30            10           -10.64995      6.007679      6.100442
 40            10           -12.54167      5.407448      5.476538
 50            10           -15.41596      4.376281      4.421601
 60            10           -19.47593      2.678132      2.704499
 70            10           -23.91049     -.167846      -.14954  
 80            10           -27.25645     -5.646221     -5.616348
 90            10           -999          -999          -999     
 0             20           -2.711138      6.067691      6.607958
 10            20           -2.94126       6.05865       6.573629
 20            20           -3.583275      5.931046      6.39144 
 30            20           -4.752013      5.62243       6.00362 
 40            20           -6.638893      5.031428      5.317433
 50            20           -9.507426      4.009946      4.198989
 60            20           -13.56011      2.321192      2.431882
 70            20           -17.98949     -.516749      -.43972  
 80            20           -21.34138     -5.989641     -5.8648  
 90            20           -999          -999          -999     
 0             30            .587276       5.358598      6.607958
 10            30            .36128        5.360725      6.554169
 20            30           -.275271       5.245791      6.319502
 30            30           -1.437441      4.951372      5.849285
 40            30           -3.316772      4.375819      5.058102
 50            30           -6.176377      3.370346      3.827492
 60            30           -10.21779      1.696953      1.967783
 70            30           -14.63953     -1.12796      -.93867  
 80            30           -18.00136     -6.592019     -6.288905
 90            30           -999          -999          -999     
 0             40            2.769252      4.293077      6.607958
 10            40            2.548761      4.312418      6.529808
 20            40            1.919344      4.216499      6.228365
 30            40            .765629       3.942912      5.648874
 40            40           -1.104078      3.389581      4.710038
 50            40           -3.952336      2.406726      3.310211
 60            40           -7.979443      .754695       1.300213
 70            40           -12.39203     -2.052325     -1.668206
 80            40           -15.76789     -7.504358     -6.90056 
 90            40           -999          -999          -999     
 0             50            4.292998      2.769364      6.607958
 10            50            4.079146      2.814744      6.503098
 20            50            3.458091      2.746689      6.127241
 30            50            2.314118      2.5028        5.419784
 40            50            .455388       1.980395      4.294788
 50            50           -2.379947      1.02834       2.6606  
 60            50           -6.390756     -.595147       .419894 
 70            50           -10.7937      -3.37863      -2.654881
 80            50           -14.18745     -8.81502      -7.708316
 90            50           -999          -999          -999     
 0             60            5.358543      .58744        6.607958
 10            60            5.152181      .67462        6.476863
 20            60            4.540234      .649777       6.027113
 30            60            3.406664      .450584       5.185726
 40            60            1.559566     -.026487       3.848844
 50            60           -1.262051     -.934443       1.915141
 60            60           -5.255539     -2.517905     -.664189 
 70            60           -9.649149     -5.268956     -3.918464
 80            60           -13.06415     -10.68406     -8.70276 
 90            60           -999          -999          -999     
 0             70            6.067657     -2.710879      6.607958
 10            70            5.869329     -2.544762      6.453876
 20            70            5.266755     -2.490827      5.939649
 30            70            4.143672     -2.611072      4.975537
 40            70            2.308242     -3.010279      3.427131
 50            70           -.499508      -3.844368      1.152723
 60            70           -4.475435     -5.362275     -1.885958
 70            70           -8.860586     -8.061201     -5.432227
 80            70           -12.2994      -13.44257     -9.823178
 90            70           -999          -999          -999     
 0             80            6.474979     -8.59837       6.607958
 10            80            6.284924     -8.209838      6.436526
 20            80            5.691546     -7.94385       5.875626
 30            80            4.578526     -7.860461      4.819398
 40            80            2.754302     -8.066553      3.099696
 50            80           -.039934      -8.723868      .51154  
 60            80           -3.998655     -10.08979     -3.043571
 70            80           -8.376522     -12.67101     -7.002958
 80            80           -11.84084     -17.97764     -10.89473
 90            80           -999          -999          -999     
 0             90            6.607958     -93.53534      6.607958
 10            90            6.426125     -34.11111      6.426509
 20            90            5.841388     -28.16372      5.843115
 30            90            4.737601     -24.8653       4.742358
 40            90            2.923724     -22.88939      2.935098
 50            90            .142254      -21.9753       .168843 
 60            90           -3.800067     -22.20971     -3.737879
 70            90           -8.171986     -24.01962     -8.060446
 80            90           -11.6627      -28.8757      -11.58097
 90            90           -999          -999          -999     
 0             100           6.474995     -8.598905      6.607958
 10            100           6.30107      -9.097167      6.424599
 20            100           5.724128     -9.737577      5.84589 
 30            100           4.628437     -10.59046      4.757098
 40            100           2.823739     -11.75532      2.972476
 50            100           .053959      -13.36238      .247355 
 60            100          -3.873146     -15.61013     -3.591359
 70            100          -8.240557     -18.92251     -7.884385
 80            100          -11.75795     -24.71799     -11.54365
 90            100          -999          -999          -999     
 0             110           6.067691     -2.711138      6.607958
 10            110           5.901133     -2.97136       6.430547
 20            110           5.330941     -3.351461      5.882599
 30            110           4.242012     -3.91661       4.859571
 40            110           2.445099     -4.766406      3.200721
 50            110          -.314356      -6.040717      .715208 
 60            110          -4.227771     -7.961098     -2.69475 
 70            110          -8.5922       -10.98872     -6.616912
 80            110          -12.13614     -16.58719     -10.80447
 90            110          -999          -999          -999     
 0             120           5.358598      .587276       6.607958
 10            120           5.198682      .407632       6.443119
 20            120           4.634094      .111597       5.947009
 30            120           3.550511     -.364814       5.030195
 40            120           1.759849     -1.121768      3.564081
 50            120          -.990884      -2.30235       1.413   
 60            120          -4.892432     -4.134411     -1.486604
 70            120          -9.255448     -7.088064     -5.02763 
 80            120          -12.82545     -12.63678     -9.719791
 90            120          -999          -999          -999     
 0             130           4.293077      2.769252      6.607958
 10            130           4.138941      2.630732      6.460281
 20            130           3.5788        2.376119      6.029259
 30            130           2.499176      1.942087      5.239858
 40            130           .713209       1.22828       3.988676
 50            130          -2.030546      .090201       2.168312
 60            130          -5.922266     -1.702694     -.308689 
 70            130          -10.28536     -4.62417      -3.580769
 80            130          -13.88046     -10.15156     -8.617222
 90            130          -999          -999          -999     
 0             140           2.769364      4.292998      6.607958
 10            140           2.620045      4.179147      6.479488
 20            140           2.063261      3.94846       6.117659
 30            140           .986351       3.538076      5.457289
 40            140          -.796371       2.847623      4.407406
 50            140          -3.5349        1.731937      2.862619
 60            140          -7.418916     -.040817       .688626 
 70            140          -11.7833      -2.946088     -2.412611
 80            140          -15.40176     -8.462899     -7.662571
 90            140          -999          -999          -999     
 0             150           .58744        5.358543      6.607958
 10            150           .44191        5.260413      6.498026
 20            150          -.112487       5.044377      6.200514
 30            150          -1.187702      4.647906      5.65464 
 40            150          -2.968399      3.970676      4.770967
 50            150          -5.70331       2.867218      3.432373
 60            150          -9.581684      1.105097      1.460889
 70            150          -13.94809     -1.791868     -1.535261
 80            150          -17.58698     -7.30338      -6.914483
 90            150          -999          -999          -999     
 0             160          -2.710879      6.067657      6.607958
 10            160          -2.853684      5.979408      6.513362
 20            160          -3.406517      5.772244      6.267587
 30            160          -4.480789      5.383853      5.810261
 40            160          -6.260374      4.713965      5.047815
 50            160          -8.993014      3.616987      3.848802
 60            160          -12.86761      1.860242      2.004052
 70            160          -17.23613     -1.032707     -.929837 
 80            160          -20.89112     -6.541748     -6.385077
 90            160          -999          -999          -999     
 0             170          -8.59837       6.474979      6.607958
 10            170          -8.739535      6.392221      6.52345 
 20            170          -9.291492      6.189845      6.311066
 30            170          -10.36531      5.805658      5.90929 
 40            170          -12.14438      5.13943       5.219852
 50            170          -14.87579      4.045524      4.100844
 60            170          -18.74821      2.291188      2.32524 
 70            170          -23.11824     -.600062      -.57581  
 80            170          -26.7836      -6.10811      -6.071094
 90            170          -999          -999          -999     
 0             180          -93.53534      6.607958      6.607958
 10            180          -93.68332      6.526966      6.526966
 20            180          -94.149        6.326105      6.326105
 30            180          -95.00856      5.943219      5.943219
 40            180          -96.37643      5.278093      5.278093
 50            180          -98.38818      4.185081      4.185081
 60            180          -101.1693      2.431417      2.431417
 70            180          -104.7982     -.459382      -.459382 
 80            180          -109.74       -5.967179     -5.967179
 90            180          -999          -999          -999     
 0             190          -8.598905      6.474995      6.607958
 10            190          -8.740072      6.392238      6.523451
 20            190          -9.29204       6.189862      6.311067
 30            190          -10.36589      5.805675      5.909293
 40            190          -12.145        5.139447      5.219857
 50            190          -14.87653      4.045542      4.100853
 60            190          -18.74918      2.291207      2.325251
 70            190          -23.11954     -.600043      -.575798 
 80            190          -26.78482     -6.108091     -6.071086
 90            190          -999          -999          -999     
 0             200          -2.711138      6.067691      6.607958
 10            200          -2.853944      5.979442      6.513362
 20            200          -3.406783      5.772279      6.267589
 30            200          -4.481067      5.383888      5.810267
 40            200          -6.260676      4.714001      5.047826
 50            200          -8.993369      3.617024      3.848819
 60            200          -12.86808      1.860279      2.004073
 70            200          -17.23675     -1.032669     -.929814 
 80            200          -20.8917      -6.541709     -6.385059
 90            200          -999          -999          -999     
 0             210           .587276       5.358598      6.607958
 10            210           .441746       5.260467      6.498026
 20            210          -.112654       5.044432      6.200518
 30            210          -1.187876      4.647962      5.654649
 40            210          -2.968589      3.970733      4.770983
 50            210          -5.703532      2.867277      3.432397
 60            210          -9.581975      1.105157      1.46092 
 70            210          -13.94848     -1.791807     -1.535226
 80            210          -17.58734     -7.303319     -6.914458
 90            210          -999          -999          -999     
 0             220           2.769252      4.293077      6.607958
 10            220           2.619932      4.179227      6.479488
 20            220           2.063146      3.948541      6.117663
 30            220           .986231       3.538158      5.457298
 40            220          -.796501       2.847706      4.407424
 50            220          -3.535051      1.732021      2.862649
 60            220          -7.419114     -.040732       .688668 
 70            220          -11.78357     -2.946001     -2.412564
 80            220          -15.402       -8.462811     -7.662539
 90            220          -999          -999          -999     
 0             230           4.292998      2.769364      6.607958
 10            230           4.138861      2.630845      6.460281
 20            230           3.578719      2.376233      6.029262
 30            230           2.499091      1.942203      5.239867
 40            230           .713118       1.228398      3.988695
 50            230          -2.030652      .09032        2.168346
 60            230          -5.922403     -1.702573     -.308639 
 70            230          -10.28554     -4.624048     -3.580712
 80            230          -13.88063     -10.15144     -8.617185
 90            230          -999          -999          -999     
 0             240           5.358543      .58744        6.607958
 10            240           5.198627      .407797       6.443119
 20            240           4.634039      .111765       5.947011
 30            240           3.550453     -.364644       5.030203
 40            240           1.759786     -1.121596      3.564098
 50            240          -.990956      -2.302176      1.413032
 60            240          -4.892525     -4.134236     -1.486552
 70            240          -9.255571     -7.087887     -5.027566
 80            240          -12.82556     -12.6366      -9.719755
 90            240          -999          -999          -999     
 0             250           6.067657     -2.710879      6.607958
 10            250           5.901098     -2.971096      6.430547
 20            250           5.330906     -3.351193      5.8826  
 30            250           4.241976     -3.916337      4.859576
 40            250           2.445059     -4.766129      3.200733
 50            250          -.314402      -6.040436      .715232 
 60            250          -4.22783      -7.960814     -2.694707
 70            250          -8.592277     -10.98844     -6.616856
 80            250          -12.13621     -16.58691     -10.80445
 90            250          -999          -999          -999     
 0             260           6.474979     -8.59837       6.607958
 10            260           6.301053     -9.096613      6.424598
 20            260           5.724111     -9.737004      5.84589 
 30            260           4.628419     -10.58987      4.757098
 40            260           2.82372      -11.75471      2.972478
 50            260           .053937      -13.36176      .24736  
 60            260          -3.873175     -15.6095      -3.591347
 70            260          -8.240594     -18.92188     -7.88437 
 80            260          -11.75798     -24.71737     -11.54365
 90            260          -999          -999          -999     
 0             270           6.607958     -93.53534      6.607958
 10            270           6.426125     -34.12447      6.426508
 20            270           5.841388     -28.17037      5.843112
 30            270           4.737601     -24.86972      4.742353
 40            270           2.923724     -22.8927       2.935089
 50            270           .142254      -21.97795      .168827 
 60            270          -3.800067     -22.21196     -3.737911
 70            270          -8.171987     -24.02161     -8.060497
 80            270          -11.6627      -28.87756     -11.581  
 90            270          -999          -999          -999     
 0             280           6.474995     -8.598905      6.607958
 10            280           6.284941     -8.210355      6.436525
 20            280           5.691563     -7.944351      5.875622
 30            280           4.578544     -7.860946      4.819389
 40            280           2.754321     -8.067024      3.099677
 50            280          -.039912      -8.724324      .511505 
 60            280          -3.998627     -10.09024     -3.043636
 70            280          -8.376486     -12.67144     -7.003049
 80            280          -11.8408      -17.97807     -10.89479
 90            280          -999          -999          -999     
 0             290           6.067691     -2.711138      6.607958
 10            290           5.869363     -2.545017      6.453874
 20            290           5.26679      -2.491079      5.939643
 30            290           4.143708     -2.61132       4.975524
 40            290           2.308281     -3.010525      3.427106
 50            290          -.499462      -3.84461       1.152678
 60            290          -4.475376     -5.362514     -1.886032
 70            290          -8.860508     -8.061436     -5.43232 
 80            290          -12.29933     -13.44281     -9.82324 
 90            290          -999          -999          -999     
 0             300           5.358598      .587276       6.607958
 10            300           5.152235      .674458       6.476861
 20            300           4.54029       .649616       6.027106
 30            300           3.406723      .450424       5.185711
 40            300           1.559629     -.026647       3.848816
 50            300          -1.261977     -.934602       1.915095
 60            300          -5.255442     -2.518063     -.664258 
 70            300          -9.649021     -5.269113     -3.918545
 80            300          -13.06403     -10.68422     -8.702817
 90            300          -999          -999          -999     
 0             310           4.293077      2.769252      6.607958
 10            310           4.079226      2.814632      6.503096
 20            310           3.458173      2.746578      6.127233
 30            310           2.314203      2.502689      5.419768
 40            310           .455481       1.980283      4.294761
 50            310          -2.379837      1.028227      2.660557
 60            310          -6.390611     -.595259       .419835 
 70            310          -10.7935      -3.378742     -2.654947
 80            310          -14.18728     -8.815133     -7.708364
 90            310          -999          -999          -999     
 0             320           2.769364      4.292998      6.607958
 10            320           2.548874      4.312339      6.529805
 20            320           1.91946       4.21642       6.228359
 30            320           .765751       3.942832      5.64886 
 40            320          -1.103944      3.389501      4.710014
 50            320          -3.952178      2.406645      3.310175
 60            320          -7.979231      .754613       1.300166
 70            320          -12.39175     -2.052407     -1.668257
 80            320          -15.76764     -7.50444      -6.9006  
 90            320          -999          -999          -999     
 0             330           .58744        5.358543      6.607958
 10            330           .361445       5.360671      6.554167
 20            330          -.275101       5.245737      6.319496
 30            330          -1.437262      4.951316      5.849273
 40            330          -3.316576      4.375763      5.058083
 50            330          -6.176143      3.37029       3.827464
 60            330          -10.21748      1.696895      1.967748
 70            330          -14.63911     -1.128019     -.938708 
 80            330          -18.00099     -6.592077     -6.288934
 90            330          -999          -999          -999     
 0             340          -2.710879      6.067657      6.607958
 10            340          -2.940998      6.058615      6.573628
 20            340          -3.583005      5.931011      6.391436
 30            340          -4.751728      5.622395      6.003612
 40            340          -6.638579      5.031392      5.317419
 50            340          -9.50705       4.009909      4.19897 
 60            340          -13.5596       2.321155      2.431858
 70            340          -17.9888      -.516787      -.439745 
 80            340          -21.34076     -5.989679     -5.86482 
 90            340          -999          -999          -999     
 0             350          -8.59837       6.474979      6.607958
 10            350          -8.831043      6.459584      6.586167
 20            350          -9.476479      6.324637      6.437364
 30            350          -10.64936      6.007662      6.100437
 40            350          -12.54102      5.407431      5.476531
 50            350          -15.41518      4.376263      4.421592
 60            350          -19.47486      2.678114      2.704488
 70            350          -23.90904     -.167865      -.149552 
 80            350          -27.25516     -5.646239     -5.616358
 90            350          -999          -999          -999     
 0             360          -93.53534      6.607958      6.607958
 10            360          -93.67847      6.590495      6.590495
 20            360          -94.13984      6.453136      6.453136
 30            360          -94.99612      6.13339       6.13339 
 40            360          -96.36221      5.530079      5.530079
 50            360          -98.37385      4.495657      4.495657
 60            360          -101.1556      2.794334      2.794334
 70            360          -104.7817     -.054373      -.054373 
 80            360          -109.7115     -5.534614     -5.534614
 90            360          -999          -999          -999     