                   ****************************************
                     MINI-NUMERICAL ELECTROMAGNETICS CODE
                                   MININEC
                   ****************************************

FREQUENCY (MHZ): 7
    WAVE LENGTH =  42.82857  METERS

ENVIRONMENT (+1 FOR FREE SPACE, -1 FOR GROUND PLANE): -1
 NUMBER OF MEDIA (0 FOR PERFECTLY CONDUCTING GROUND):  1
 RELATIVE DIELECTRIC CONSTANT, CONDUCTIVITY:  13 , .005

NO. OF WIRES: 6

WIRE NO. 1
            COORDINATES                                 END         NO. OF
   X             Y             Z          RADIUS     CONNECTION     SEGMENTS
 4.8768       -5.4864        10                         0
 4.8768        5.4864        10            .001051      0             18

WIRE NO. 2
            COORDINATES                                 END         NO. OF
   X             Y             Z          RADIUS     CONNECTION     SEGMENTS
 4.8768        5.4864        10                         1
 0             5.4864        12.4384       .001051      0              9

WIRE NO. 3
            COORDINATES                                 END         NO. OF
   X             Y             Z          RADIUS     CONNECTION     SEGMENTS
 0             5.4864        12.4384                    2
-4.8768        5.4864        10            .001051      0              9

WIRE NO. 4
            COORDINATES                                 END         NO. OF
   X             Y             Z          RADIUS     CONNECTION     SEGMENTS
-4.8768        5.4864        10                         3
-4.8768       -5.4864        10            .001051      0             18

WIRE NO. 5
            COORDINATES                                 END         NO. OF
   X             Y             Z          RADIUS     CONNECTION     SEGMENTS
-4.8768       -5.4864        10                         4
 0            -5.4864        12.4384       .001051      0              9

WIRE NO. 6
            COORDINATES                                 END         NO. OF
   X             Y             Z          RADIUS     CONNECTION     SEGMENTS
 0            -5.4864        12.4384                    5
 4.8768       -5.4864        10            .001051      1              9

                  **** ANTENNA GEOMETRY ****

WIRE NO.  1  COORDINATES                                CONNECTION PULSE
X             Y             Z             RADIUS        END1 END2  NO.
 4.8768       -4.8768        10            .001051       0    1   1
 4.8768       -4.2672        10            .001051       1    1   2
 4.8768       -3.6576        10            .001051       1    1   3
 4.8768       -3.048         10            .001051       1    1   4
 4.8768       -2.4384        10            .001051       1    1   5
 4.8768       -1.8288        10            .001051       1    1   6
 4.8768       -1.2192        10            .001051       1    1   7
 4.8768       -.6096         10            .001051       1    1   8
 4.8768        0             10            .001051       1    1   9
 4.8768        .6096         10            .001051       1    1  10
 4.8768        1.2192        10            .001051       1    1  11
 4.8768        1.8288        10            .001051       1    1  12
 4.8768        2.4384        10            .001051       1    1  13
 4.8768        3.048         10            .001051       1    1  14
 4.8768        3.6576        10            .001051       1    1  15
 4.8768        4.2672        10            .001051       1    1  16
 4.8768        4.8768        10            .001051       1    0  17

WIRE NO.  2  COORDINATES                                CONNECTION PULSE
X             Y             Z             RADIUS        END1 END2  NO.
 4.8768        5.4864        10            .001051       1    2  18
 4.334933      5.4864        10.27093      .001051       2    2  19
 3.793067      5.4864        10.54187      .001051       2    2  20
 3.2512        5.4864        10.8128       .001051       2    2  21
 2.709333      5.4864        11.08373      .001051       2    2  22
 2.167467      5.4864        11.35467      .001051       2    2  23
 1.6256        5.4864        11.6256       .001051       2    2  24
 1.083733      5.4864        11.89653      .001051       2    2  25
 .541867       5.4864        12.16747      .001051       2    0  26

WIRE NO.  3  COORDINATES                                CONNECTION PULSE
X             Y             Z             RADIUS        END1 END2  NO.
 0             5.4864        12.4384       .001051       2    3  27
-.541867       5.4864        12.16747      .001051       3    3  28
-1.083733      5.4864        11.89653      .001051       3    3  29
-1.6256        5.4864        11.6256       .001051       3    3  30
-2.167467      5.4864        11.35467      .001051       3    3  31
-2.709333      5.4864        11.08373      .001051       3    3  32
-3.2512        5.4864        10.8128       .001051       3    3  33
-3.793067      5.4864        10.54187      .001051       3    3  34
-4.334933      5.4864        10.27093      .001051       3    0  35

WIRE NO.  4  COORDINATES                                CONNECTION PULSE
X             Y             Z             RADIUS        END1 END2  NO.
-4.8768        5.4864        10            .001051       3    4  36
-4.8768        4.8768        10            .001051       4    4  37
-4.8768        4.2672        10            .001051       4    4  38
-4.8768        3.6576        10            .001051       4    4  39
-4.8768        3.048         10            .001051       4    4  40
-4.8768        2.4384        10            .001051       4    4  41
-4.8768        1.8288        10            .001051       4    4  42
-4.8768        1.2192        10            .001051       4    4  43
-4.8768        .6096         10            .001051       4    4  44
-4.8768        0             10            .001051       4    4  45
-4.8768       -.6096         10            .001051       4    4  46
-4.8768       -1.2192        10            .001051       4    4  47
-4.8768       -1.8288        10            .001051       4    4  48
-4.8768       -2.4384        10            .001051       4    4  49
-4.8768       -3.048         10            .001051       4    4  50
-4.8768       -3.6576        10            .001051       4    4  51
-4.8768       -4.2672        10            .001051       4    4  52
-4.8768       -4.8768        10            .001051       4    0  53

WIRE NO.  5  COORDINATES                                CONNECTION PULSE
X             Y             Z             RADIUS        END1 END2  NO.
-4.8768       -5.4864        10            .001051       4    5  54
-4.334933     -5.4864        10.27093      .001051       5    5  55
-3.793067     -5.4864        10.54187      .001051       5    5  56
-3.2512       -5.4864        10.8128       .001051       5    5  57
-2.709333     -5.4864        11.08373      .001051       5    5  58
-2.167467     -5.4864        11.35467      .001051       5    5  59
-1.6256       -5.4864        11.6256       .001051       5    5  60
-1.083733     -5.4864        11.89653      .001051       5    5  61
-.541867      -5.4864        12.16747      .001051       5    0  62

WIRE NO.  6  COORDINATES                                CONNECTION PULSE
X             Y             Z             RADIUS        END1 END2  NO.
 0            -5.4864        12.4384       .001051       5    6  63
 .541867      -5.4864        12.16747      .001051       6    6  64
 1.083733     -5.4864        11.89653      .001051       6    6  65
 1.6256       -5.4864        11.6256       .001051       6    6  66
 2.167467     -5.4864        11.35467      .001051       6    6  67
 2.709333     -5.4864        11.08373      .001051       6    6  68
 3.2512       -5.4864        10.8128       .001051       6    6  69
 3.793067     -5.4864        10.54187      .001051       6    6  70
 4.334933     -5.4864        10.27093      .001051       6    6  71
 4.8768       -5.4864        10            .001051       6    1  72

NO. OF SOURCES :  1
PULSE NO., VOLTAGE MAGNITUDE, PHASE (DEGREES):  9 , 1 , 0
NUMBER OF LOADS 0

********************    SOURCE DATA     ********************
PULSE  9      VOLTAGE = ( 1 , 0 J)
              CURRENT = ( 6.288876E-03 ,  1.953757E-03 J)
              IMPEDANCE = ( 145.0148 , -45.05157 J)
              POWER =  3.144438E-03  WATTS

********************    CURRENT DATA    ********************

WIRE NO.  1 :
PULSE         REAL          IMAGINARY     MAGNITUDE     PHASE
 NO.          (AMPS)        (AMPS)        (AMPS)        (DEGREES)
J              4.381607E-03  8.243214E-04  4.458473E-03  10.65465 
 1             4.766090E-03  9.589825E-04  4.861611E-03  11.37655 
 2             5.111765E-03  1.092405E-03  5.227187E-03  12.0629  
 3             5.416776E-03  1.223631E-03  5.553264E-03  12.72927 
 4             5.678919E-03  1.351870E-03  5.837608E-03  13.39008 
 5             5.896214E-03  1.476516E-03  6.078275E-03  14.05876 
 6             6.066993E-03  1.597247E-03  6.273723E-03  14.74948 
 7             6.189937E-03  1.714305E-03  6.422941E-03  15.48009 
 8             6.264091E-03  1.829444E-03  6.525772E-03  16.28058 
 9             6.288876E-03  1.953757E-03  6.585372E-03  17.25839 
 10            6.264100E-03  1.829435E-03  6.525778E-03  16.28049 
 11            6.189956E-03  1.714288E-03  6.422953E-03  15.47989 
 12            6.067021E-03  1.597220E-03  6.273743E-03  14.74918 
 13            5.896250E-03  1.476481E-03  6.078303E-03  14.05836 
 14            5.678964E-03  1.351828E-03  5.837642E-03  13.38957 
 15            5.416829E-03  1.223581E-03  5.553304E-03  12.72864 
 16            5.111826E-03  1.092347E-03  5.227235E-03  12.06213 
 17            4.766158E-03  9.589175E-04  4.861665E-03  11.37564 
J              4.381681E-03  8.242499E-04  4.458533E-03  10.65356 
WIRE NO.  2 :
PULSE         REAL          IMAGINARY     MAGNITUDE     PHASE
 NO.          (AMPS)        (AMPS)        (AMPS)        (DEGREES)
J              4.381681E-03  8.242499E-04  4.458533E-03  10.65356 
 19            3.982094E-03  6.903048E-04  4.041484E-03  9.834615 
 20            3.552008E-03  5.503787E-04  3.594396E-03  8.807856 
 21            3.095363E-03  4.058698E-04  3.121859E-03  7.470114 
 22            2.615726E-03  2.580102E-04  2.628420E-03  5.633323 
 23            2.116765E-03  1.080237E-04  2.119519E-03  2.921409 
 24            1.602277E-03 -4.286648E-05  1.602850E-03 -1.532496 
 25            1.076173E-03 -1.934415E-04  1.093420E-03 -10.19007 
 26            5.424581E-04 -3.424912E-04  6.415302E-04 -32.26704 
J              5.213850E-06 -4.887959E-04  4.888238E-04 -89.38887 
WIRE NO.  3 :
PULSE         REAL          IMAGINARY     MAGNITUDE     PHASE
 NO.          (AMPS)        (AMPS)        (AMPS)        (DEGREES)
J              5.213850E-06 -4.887959E-04  4.888238E-04 -89.38887 
 28           -5.319899E-04 -6.320161E-04  8.261099E-04 -130.0885 
 29           -1.065609E-03 -7.703035E-04  1.314873E-03 -144.1377 
 30           -1.591566E-03 -9.026009E-04  1.829691E-03 -150.4418 
 31           -2.105857E-03 -1.027867E-03  2.343319E-03 -153.983  
 32           -2.604575E-03 -1.145109E-03  2.845187E-03 -156.2672 
 33           -3.083925E-03 -1.253391E-03  3.328901E-03 -157.8818 
 34           -3.540243E-03 -1.351832E-03  3.789561E-03 -159.1008 
 35           -3.969963E-03 -1.439593E-03  4.222918E-03 -160.0683 
J             -4.369147E-03 -1.515635E-03  4.624565E-03 -160.8686 
WIRE NO.  4 :
PULSE         REAL          IMAGINARY     MAGNITUDE     PHASE
 NO.          (AMPS)        (AMPS)        (AMPS)        (DEGREES)
J             -4.369147E-03 -1.515635E-03  4.624565E-03 -160.8686 
 37           -4.753163E-03 -1.588904E-03  5.011704E-03 -161.5161 
 38           -5.098418E-03 -1.654969E-03  5.360298E-03 -162.0163 
 39           -5.403059E-03 -1.713344E-03  5.668209E-03 -162.4059 
 40           -5.664883E-03 -1.763550E-03  5.933044E-03 -162.708  
 41           -5.881914E-03 -1.805182E-03  6.152690E-03 -162.9385 
 42           -6.052486E-03 -1.837908E-03  6.325385E-03 -163.1085 
 43           -6.175281E-03 -1.861467E-03  6.449741E-03 -163.2252 
 44           -6.249345E-03 -1.875676E-03  6.524758E-03 -163.2934 
 45           -6.274100E-03 -1.880421E-03  6.549833E-03 -163.3159 
 46           -6.249354E-03 -1.875667E-03  6.524764E-03 -163.2935 
 47           -6.175299E-03 -1.861450E-03  6.449753E-03 -163.2254 
 48           -6.052513E-03 -1.837882E-03  6.325404E-03 -163.1088 
 49           -5.881950E-03 -1.805149E-03  6.152715E-03 -162.9389 
 50           -5.664928E-03 -1.763508E-03  5.933074E-03 -162.7085 
 51           -5.403112E-03 -1.713294E-03  5.668244E-03 -162.4065 
 52           -5.098479E-03 -1.654912E-03  5.360338E-03 -162.0171 
 53           -4.753231E-03 -1.588840E-03  5.011748E-03 -161.517  
J             -4.369222E-03 -1.515565E-03  4.624612E-03 -160.8697 
WIRE NO.  5 :
PULSE         REAL          IMAGINARY     MAGNITUDE     PHASE
 NO.          (AMPS)        (AMPS)        (AMPS)        (DEGREES)
J             -4.369222E-03 -1.515565E-03  4.624612E-03 -160.8697 
 55           -3.970044E-03 -1.439517E-03  4.222968E-03 -160.0696 
 56           -3.540330E-03 -1.351751E-03  3.789613E-03 -159.1024 
 57           -3.084017E-03 -1.253304E-03  3.328954E-03 -157.8838 
 58           -2.604672E-03 -1.145019E-03  2.845239E-03 -156.2696 
 59           -2.105958E-03 -1.027773E-03  2.343369E-03 -153.9862 
 60           -1.591670E-03 -9.025043E-04  1.829734E-03 -150.446  
 61           -1.065716E-03 -7.702051E-04  1.314902E-03 -144.1439 
 62           -5.320979E-04 -6.319165E-04  8.261033E-04 -130.0987 
J              5.105503E-06 -4.886959E-04  4.887226E-04 -89.40144 
WIRE NO.  6 :
PULSE         REAL          IMAGINARY     MAGNITUDE     PHASE
 NO.          (AMPS)        (AMPS)        (AMPS)        (DEGREES)
J              5.105503E-06 -4.886959E-04  4.887226E-04 -89.40144 
 64            5.423500E-04 -3.423912E-04  6.413855E-04 -32.26465 
 65            1.076066E-03 -1.933425E-04  1.093298E-03 -10.18595 
 66            1.602173E-03 -4.276910E-05  1.602743E-03 -1.529115 
 67            2.116664E-03  1.081186E-04  2.119424E-03  2.924111 
 68            2.615629E-03  2.581019E-04  2.628333E-03  5.63552  
 69            3.095271E-03  4.059576E-04  3.121779E-03  7.471931 
 70            3.551921E-03  5.504618E-04  3.594322E-03  8.809377 
 71            3.982013E-03  6.903825E-04  4.041417E-03  9.835896 
J              4.381607E-03  8.243214E-04  4.458473E-03  10.65465 

********************     FAR FIELD      ********************

ZENITH ANGLE : INITIAL,INCREMENT,NUMBER: 0 , 10 , 10
AZIMUTH ANGLE: INITIAL,INCREMENT,NUMBER: 0 , 10 , 37

********************    PATTERN DATA    ********************
ZENITH        AZIMUTH       VERTICAL      HORIZONTAL    TOTAL
 ANGLE         ANGLE        PATTERN (DB)  PATTERN (DB)  PATTERN (DB)
 0             0            -93.5354       6.607905      6.607905
 10            0            -93.67852      6.590442      6.590442
 20            0            -94.13989      6.453082      6.453082
 30            0            -94.99617      6.133337      6.133337
 40            0            -96.36227      5.530026      5.530026
 50            0            -98.37391      4.495604      4.495604
 60            0            -101.1557      2.79428       2.79428 
 70            0            -104.7817     -.054426      -.054426 
 80            0            -109.7116     -5.534668     -5.534668
 90            0            -999          -999          -999     
 0             10           -8.598958      6.474942      6.607905
 10            10           -8.831638      6.459547      6.586115
 20            10           -9.47709       6.324601      6.437312
 30            10           -10.65001      6.007625      6.100388
 40            10           -12.54173      5.407395      5.476485
 50            10           -15.41601      4.376228      4.421548
 60            10           -19.47598      2.678079      2.704446
 70            10           -23.91054     -.167899      -.149593 
 80            10           -27.2565      -5.646274     -5.616402
 90            10           -999          -999          -999     
 0             20           -2.711191      6.067638      6.607905
 10            20           -2.941313      6.058596      6.573576
 20            20           -3.583328      5.930993      6.391386
 30            20           -4.752066      5.622377      6.003566
 40            20           -6.638946      5.031374      5.317379
 50            20           -9.507479      4.009892      4.198935
 60            20           -13.56016      2.321138      2.431828
 70            20           -17.98955     -.516802      -.439774 
 80            20           -21.34143     -5.989694     -5.864854
 90            20           -999          -999          -999     
 0             30            .587223       5.358545      6.607905
 10            30            .361227       5.360672      6.554116
 20            30           -.275324       5.245738      6.319448
 30            30           -1.437494      4.951318      5.849231
 40            30           -3.316825      4.375766      5.058049
 50            30           -6.17643       3.370293      3.827438
 60            30           -10.21785      1.696899      1.96773 
 70            30           -14.63959     -1.128014     -.938723 
 80            30           -18.00142     -6.592072     -6.288958
 90            30           -999          -999          -999     
 0             40            2.769198      4.293024      6.607905
 10            40            2.548707      4.312364      6.529754
 20            40            1.91929       4.216446      6.228312
 30            40            .765576       3.942858      5.64882 
 40            40           -1.104131      3.389528      4.709984
 50            40           -3.95239       2.406672      3.310157
 60            40           -7.979497      .754642       1.30016 
 70            40           -12.39209     -2.052378     -1.668259
 80            40           -15.76795     -7.504411     -6.900614
 90            40           -999          -999          -999     
 0             50            4.292944      2.769311      6.607905
 10            50            4.079093      2.814691      6.503045
 20            50            3.458038      2.746636      6.127187
 30            50            2.314064      2.502747      5.41973 
 40            50            .455335       1.980342      4.294735
 50            50           -2.38          1.028286      2.660547
 60            50           -6.390809     -.5952         .41984  
 70            50           -10.79375     -3.378683     -2.654934
 80            50           -14.1875      -8.815073     -7.708369
 90            50           -999          -297.7119     -297.6855
 0             60            5.35849       .587386       6.607905
 10            60            5.152127      .674567       6.47681 
 20            60            4.54018       .649724       6.02706 
 30            60            3.406611      .450531       5.185672
 40            60            1.559512     -.026541       3.848791
 50            60           -1.262104     -.934496       1.915088
 60            60           -5.255593     -2.517958     -.664242 
 70            60           -9.649203     -5.26901      -3.918518
 80            60           -13.0642      -10.68412     -8.702813
 90            60           -999          -999          -999     
 0             70            6.067604     -2.710932      6.607905
 10            70            5.869275     -2.544815      6.453823
 20            70            5.266701     -2.49088       5.939596
 30            70            4.143618     -2.611125      4.975484
 40            70            2.308188     -3.010333      3.427078
 50            70           -.499561      -3.844421      1.15267 
 60            70           -4.475489     -5.362329     -1.886011
 70            70           -8.86064      -8.061254     -5.43228 
 80            70           -12.29945     -13.44263     -9.823231
 90            70           -999          -297.585      -297.4642
 0             80            6.474926     -8.598423      6.607905
 10            80            6.284871     -8.209891      6.436473
 20            80            5.691492     -7.943903      5.875573
 30            80            4.578473     -7.860514      4.819345
 40            80            2.754249     -8.066606      3.099643
 50            80           -.039987      -8.723921      .511487 
 60            80           -3.998708     -10.08985     -3.043624
 70            80           -8.376576     -12.67106     -7.003012
 80            80           -11.84089     -17.97769     -10.89478
 90            80           -999          -999          -999     
 0             90            6.607905     -93.5354       6.607905
 10            90            6.426072     -34.11117      6.426456
 20            90            5.841335     -28.16377      5.843062
 30            90            4.737548     -24.86536      4.742304
 40            90            2.92367      -22.88945      2.935044
 50            90            .142201      -21.97535      .16879  
 60            90           -3.80012      -22.20977     -3.737932
 70            90           -8.17204      -24.01967     -8.060499
 80            90           -11.66275     -28.87576     -11.58102
 90            90           -999          -999          -999     
 0             100           6.474942     -8.598958      6.607905
 10            100           6.301017     -9.09722       6.424546
 20            100           5.724075     -9.73763       5.845837
 30            100           4.628384     -10.59051      4.757044
 40            100           2.823686     -11.75538      2.972423
 50            100           .053906      -13.36243      .247301 
 60            100          -3.873199     -15.61018     -3.591412
 70            100          -8.24061      -18.92256     -7.884439
 80            100          -11.758       -24.71804     -11.5437 
 90            100          -999          -999          -999     
 0             110           6.067638     -2.711191      6.607905
 10            110           5.901079     -2.971413      6.430494
 20            110           5.330888     -3.351514      5.882545
 30            110           4.241959     -3.916663      4.859518
 40            110           2.445045     -4.766459      3.200668
 50            110          -.314409      -6.04077       .715155 
 60            110          -4.227825     -7.961152     -2.694804
 70            110          -8.592254     -10.98878     -6.616965
 80            110          -12.13619     -16.58725     -10.80452
 90            110          -999          -999          -999     
 0             120           5.358545      .587223       6.607905
 10            120           5.198629      .407579       6.443065
 20            120           4.634041      .111544       5.946955
 30            120           3.550457     -.364867       5.030142
 40            120           1.759795     -1.121821      3.564027
 50            120          -.990937      -2.302403      1.412947
 60            120          -4.892485     -4.134465     -1.486658
 70            120          -9.255502     -7.088118     -5.027684
 80            120          -12.8255      -12.63683     -9.719844
 90            120          -999          -299.0253     -298.8971
 0             130           4.293024      2.769198      6.607905
 10            130           4.138887      2.630679      6.460228
 20            130           3.578746      2.376065      6.029205
 30            130           2.499122      1.942034      5.239805
 40            130           .713156       1.228227      3.988623
 50            130          -2.0306        .090148       2.168259
 60            130          -5.922319     -1.702747     -.308743 
 70            130          -10.28541     -4.624224     -3.580823
 80            130          -13.88052     -10.15161     -8.617275
 90            130          -999          -999          -999     
 0             140           2.769311      4.292944      6.607905
 10            140           2.619991      4.179094      6.479434
 20            140           2.063207      3.948407      6.117606
 30            140           .986298       3.538023      5.457235
 40            140          -.796424       2.847569      4.407352
 50            140          -3.534953      1.731883      2.862566
 60            140          -7.41897      -.04087        .688573 
 70            140          -11.78336     -2.946141     -2.412664
 80            140          -15.40181     -8.462952     -7.662625
 90            140          -999          -999          -999     
 0             150           .587386       5.35849       6.607905
 10            150           .441856       5.260359      6.497972
 20            150          -.11254        5.044324      6.200461
 30            150          -1.187755      4.647853      5.654587
 40            150          -2.968453      3.970623      4.770914
 50            150          -5.703363      2.867165      3.43232 
 60            150          -9.581737      1.105044      1.460835
 70            150          -13.94815     -1.791921     -1.535314
 80            150          -17.58703     -7.303434     -6.914537
 90            150          -999          -999          -999     
 0             160          -2.710932      6.067604      6.607905
 10            160          -2.853737      5.979354      6.513309
 20            160          -3.406571      5.772191      6.267534
 30            160          -4.480842      5.383799      5.810207
 40            160          -6.260427      4.713912      5.047761
 50            160          -8.993068      3.616934      3.848749
 60            160          -12.86766      1.860188      2.003998
 70            160          -17.23618     -1.032761     -.929891 
 80            160          -20.89117     -6.541801     -6.38513 
 90            160          -999          -999          -999     
 0             170          -8.598423      6.474926      6.607905
 10            170          -8.739588      6.392168      6.523397
 20            170          -9.291545      6.189792      6.311012
 30            170          -10.36537      5.805605      5.909237
 40            170          -12.14443      5.139376      5.219798
 50            170          -14.87584      4.045471      4.100791
 60            170          -18.74826      2.291135      2.325187
 70            170          -23.1183      -.600115      -.575863 
 80            170          -26.78366     -6.108163     -6.071148
 90            170          -999          -999          -999     
 0             180          -93.5354       6.607905      6.607905
 10            180          -93.68337      6.526913      6.526913
 20            180          -94.14906      6.326051      6.326051
 30            180          -95.00861      5.943166      5.943166
 40            180          -96.37649      5.27804       5.27804 
 50            180          -98.38823      4.185028      4.185028
 60            180          -101.1694      2.431364      2.431364
 70            180          -104.7982     -.459436      -.459436 
 80            180          -109.74       -5.967232     -5.967232
 90            180          -999          -999          -999     
 0             190          -8.598958      6.474942      6.607905
 10            190          -8.740125      6.392184      6.523397
 20            190          -9.292094      6.189809      6.311014
 30            190          -10.36594      5.805622      5.90924 
 40            190          -12.14506      5.139394      5.219804
 50            190          -14.87658      4.045489      4.100799
 60            190          -18.74923      2.291153      2.325197
 70            190          -23.1196      -.600096      -.575851 
 80            190          -26.78487     -6.108144     -6.071139
 90            190          -999          -999          -999     
 0             200          -2.711191      6.067638      6.607905
 10            200          -2.853998      5.979389      6.513309
 20            200          -3.406836      5.772226      6.267536
 30            200          -4.48112       5.383835      5.810213
 40            200          -6.26073       4.713948      5.047772
 50            200          -8.993423      3.616971      3.848766
 60            200          -12.86813      1.860226      2.00402 
 70            200          -17.23681     -1.032722     -.929868 
 80            200          -20.89175     -6.541762     -6.385113
 90            200          -999          -999          -999     
 0             210           .587223       5.358545      6.607905
 10            210           .441692       5.260414      6.497973
 20            210          -.112707       5.044379      6.200464
 30            210          -1.18793       4.647909      5.654595
 40            210          -2.968643      3.97068       4.770929
 50            210          -5.703586      2.867223      3.432344
 60            210          -9.582029      1.105104      1.460867
 70            210          -13.94853     -1.79186      -1.535279
 80            210          -17.58739     -7.303372     -6.914511
 90            210          -999          -999          -999     
 0             220           2.769198      4.293024      6.607905
 10            220           2.619878      4.179174      6.479435
 20            220           2.063092      3.948488      6.117609
 30            220           .986178       3.538105      5.457245
 40            220          -.796554       2.847652      4.407371
 50            220          -3.535105      1.731968      2.862596
 60            220          -7.419168     -.040785       .688615 
 70            220          -11.78362     -2.946055     -2.412618
 80            220          -15.40205     -8.462865     -7.662592
 90            220          -999          -999          -999     
 0             230           4.292944      2.769311      6.607905
 10            230           4.138808      2.630792      6.460228
 20            230           3.578665      2.37618       6.029209
 30            230           2.499038      1.94215       5.239814
 40            230           .713065       1.228344      3.988642
 50            230          -2.030706      .090267       2.168292
 60            230          -5.922456     -1.702626     -.308693 
 70            230          -10.28559     -4.624102     -3.580765
 80            230          -13.88068     -10.15149     -8.617238
 90            230          -999          -999          -999     
 0             240           5.35849       .587386       6.607905
 10            240           5.198574      .407744       6.443065
 20            240           4.633985      .111711       5.946958
 30            240           3.550399     -.364698       5.030149
 40            240           1.759733     -1.12165       3.564045
 50            240          -.99101       -2.302229      1.412979
 60            240          -4.892579     -4.134289     -1.486605
 70            240          -9.255624     -7.087941     -5.02762 
 80            240          -12.82561     -12.63666     -9.719808
 90            240          -999          -999          -999     
 0             250           6.067604     -2.710932      6.607905
 10            250           5.901045     -2.97115       6.430493
 20            250           5.330853     -3.351246      5.882546
 30            250           4.241923     -3.91639       4.859522
 40            250           2.445006     -4.766182      3.200679
 50            250          -.314455      -6.040489      .715178 
 60            250          -4.227883     -7.960868     -2.69476 
 70            250          -8.59233      -10.98849     -6.616909
 80            250          -12.13626     -16.58696     -10.8045 
 90            250          -999          -999          -999     
 0             260           6.474926     -8.598423      6.607905
 10            260           6.301        -9.096666      6.424545
 20            260           5.724058     -9.737057      5.845836
 30            260           4.628366     -10.58992      4.757044
 40            260           2.823666     -11.75477      2.972425
 50            260           .053884      -13.36181      .247307 
 60            260          -3.873228     -15.60955     -3.5914  
 70            260          -8.240647     -18.92193     -7.884424
 80            260          -11.75803     -24.71742     -11.5437 
 90            260          -999          -999          -999     
 0             270           6.607905     -93.5354       6.607905
 10            270           6.426072     -34.12452      6.426454
 20            270           5.841335     -28.17042      5.843059
 30            270           4.737548     -24.86977      4.742299
 40            270           2.92367      -22.89275      2.935035
 50            270           .142201      -21.97801      .168773 
 60            270          -3.80012      -22.21201     -3.737964
 70            270          -8.17204      -24.02167     -8.06055 
 80            270          -11.66275     -28.87761     -11.58105
 90            270          -999          -999          -999     
 0             280           6.474942     -8.598958      6.607905
 10            280           6.284887     -8.210409      6.436471
 20            280           5.691509     -7.944405      5.875568
 30            280           4.578491     -7.861         4.819335
 40            280           2.754268     -8.067077      3.099624
 50            280          -.039965      -8.724378      .511452 
 60            280          -3.99868      -10.09029     -3.043689
 70            280          -8.376539     -12.67149     -7.003102
 80            280          -11.84086     -17.97812     -10.89484
 90            280          -999          -999          -999     
 0             290           6.067638     -2.711191      6.607905
 10            290           5.86931      -2.545071      6.453821
 20            290           5.266736     -2.491132      5.93959 
 30            290           4.143655     -2.611373      4.975471
 40            290           2.308228     -3.010578      3.427053
 50            290          -.499516      -3.844663      1.152625
 60            290          -4.475429     -5.362567     -1.886085
 70            290          -8.860561     -8.061489     -5.432373
 80            290          -12.29938     -13.44286     -9.823293
 90            290          -999          -999          -999     
 0             300           5.358545      .587223       6.607905
 10            300           5.152182      .674405       6.476808
 20            300           4.540236      .649563       6.027053
 30            300           3.40667       .450371       5.185657
 40            300           1.559576     -.0267         3.848763
 50            300          -1.262031     -.934655       1.915041
 60            300          -5.255495     -2.518116     -.664311 
 70            300          -9.649074     -5.269167     -3.918598
 80            300          -13.06408     -10.68427     -8.70287 
 90            300          -999          -999          -999     
 0             310           4.293024      2.769198      6.607905
 10            310           4.079172      2.814579      6.503043
 20            310           3.45812       2.746524      6.12718 
 30            310           2.31415       2.502635      5.419715
 40            310           .455428       1.98023       4.294708
 50            310          -2.379891      1.028174      2.660504
 60            310          -6.390664     -.595312       .419782 
 70            310          -10.79356     -3.378796     -2.655   
 80            310          -14.18733     -8.815186     -7.708417
 90            310          -999          -297.2417     -297.1802
 0             320           2.769311      4.292944      6.607905
 10            320           2.548821      4.312285      6.529752
 20            320           1.919407      4.216367      6.228305
 30            320           .765698       3.942779      5.648806
 40            320          -1.103997      3.389448      4.70996 
 50            320          -3.952232      2.406591      3.310121
 60            320          -7.979285      .75456        1.300113
 70            320          -12.3918      -2.05246      -1.66831 
 80            320          -15.76769     -7.504494     -6.900653
 90            320          -999          -999          -999     
 0             330           .587386       5.35849       6.607905
 10            330           .361392       5.360618      6.554114
 20            330          -.275155       5.245683      6.319443
 30            330          -1.437315      4.951263      5.84922 
 40            330          -3.316629      4.37571       5.05803 
 50            330          -6.176196      3.370236      3.827411
 60            330          -10.21753      1.696842      1.967695
 70            330          -14.63916     -1.128072     -.938761 
 80            330          -18.00104     -6.592131     -6.288987
 90            330          -999          -999          -999     
 0             340          -2.710932      6.067604      6.607905
 10            340          -2.941051      6.058562      6.573575
 20            340          -3.583058      5.930958      6.391382
 30            340          -4.751782      5.622342      6.003558
 40            340          -6.638632      5.031339      5.317366
 50            340          -9.507104      4.009856      4.198917
 60            340          -13.55965      2.321101      2.431805
 70            340          -17.98885     -.51684       -.439798 
 80            340          -21.34082     -5.989732     -5.864873
 90            340          -999          -999          -999     
 0             350          -8.598423      6.474926      6.607905
 10            350          -8.831096      6.459531      6.586114
 20            350          -9.476532      6.324584      6.43731 
 30            350          -10.64942      6.007608      6.100384
 40            350          -12.54107      5.407378      5.476478
 50            350          -15.41523      4.37621       4.421539
 60            350          -19.47492      2.678061      2.704434
 70            350          -23.90909     -.167918      -.149605 
 80            350          -27.25522     -5.646293     -5.616412
 90            350          -999          -999          -999     
 0             360          -93.5354       6.607905      6.607905
 10            360          -93.67852      6.590442      6.590442
 20            360          -94.13989      6.453082      6.453082
 30            360          -94.99617      6.133337      6.133337
 40            360          -96.36227      5.530026      5.530026
 50            360          -98.37391      4.495604      4.495604
 60            360          -101.1557      2.79428       2.79428 
 70            360          -104.7817     -.054426      -.054426 
 80            360          -109.7116     -5.534668     -5.534668
 90            360          -999          -999          -999     
