                   ****************************************
                     MINI-NUMERICAL ELECTROMAGNETICS CODE
                                   MININEC
                   ****************************************

FREQUENCY (MHZ): 14
    WAVE LENGTH =  21.41429  METERS

ENVIRONMENT (+1 FOR FREE SPACE, -1 FOR GROUND PLANE): -1
 NUMBER OF MEDIA (0 FOR PERFECTLY CONDUCTING GROUND):  1
 RELATIVE DIELECTRIC CONSTANT, CONDUCTIVITY:  13 , .005

NO. OF GEO-OBJECTS: 6

WIRE NO. 1
            COORDINATES                                 END         NO. OF
   X             Y             Z          RADIUS     CONNECTION     SEGMENTS
 4.8768       -5.4864        10                         0
 4.8768        5.4864        10            .001051      0             18

WIRE NO. 2
            COORDINATES                                 END         NO. OF
   X             Y             Z          RADIUS     CONNECTION     SEGMENTS
 4.8768        5.4864        10                         1
 0             5.4864        12.4384       .001051      0              9

WIRE NO. 3
            COORDINATES                                 END         NO. OF
   X             Y             Z          RADIUS     CONNECTION     SEGMENTS
 0             5.4864        12.4384                    2
-4.8768        5.4864        10            .001051      0              9

WIRE NO. 4
            COORDINATES                                 END         NO. OF
   X             Y             Z          RADIUS     CONNECTION     SEGMENTS
-4.8768        5.4864        10                         3
-4.8768       -5.4864        10            .001051      0             18

WIRE NO. 5
            COORDINATES                                 END         NO. OF
   X             Y             Z          RADIUS     CONNECTION     SEGMENTS
-4.8768       -5.4864        10                         4
 0            -5.4864        12.4384       .001051      0              9

WIRE NO. 6
            COORDINATES                                 END         NO. OF
   X             Y             Z          RADIUS     CONNECTION     SEGMENTS
 0            -5.4864        12.4384                    5
 4.8768       -5.4864        10            .001051      1              9

                  **** ANTENNA GEOMETRY ****

WIRE NO.  1 COORDINATES                                 CONNECTION PULSE
X             Y             Z             RADIUS        END1 END2  NO.
 4.8768       -4.8768        10            .001051       0    1   1
 4.8768       -4.2672        10            .001051       1    1   2
 4.8768       -3.6576        10            .001051       1    1   3
 4.8768       -3.048         10            .001051       1    1   4
 4.8768       -2.4384        10            .001051       1    1   5
 4.8768       -1.8288        10            .001051       1    1   6
 4.8768       -1.2192        10            .001051       1    1   7
 4.8768       -.6096         10            .001051       1    1   8
 4.8768        0             10            .001051       1    1   9
 4.8768        .6096         10            .001051       1    1  10
 4.8768        1.2192        10            .001051       1    1  11
 4.8768        1.8288        10            .001051       1    1  12
 4.8768        2.4384        10            .001051       1    1  13
 4.8768        3.048         10            .001051       1    1  14
 4.8768        3.6576        10            .001051       1    1  15
 4.8768        4.2672        10            .001051       1    1  16
 4.8768        4.8768        10            .001051       1    0  17

WIRE NO.  2 COORDINATES                                 CONNECTION PULSE
X             Y             Z             RADIUS        END1 END2  NO.
 4.8768        5.4864        10            .001051       1    2  18
 4.334933      5.4864        10.27093      .001051       2    2  19
 3.793067      5.4864        10.54187      .001051       2    2  20
 3.2512        5.4864        10.8128       .001051       2    2  21
 2.709333      5.4864        11.08373      .001051       2    2  22
 2.167467      5.4864        11.35467      .001051       2    2  23
 1.6256        5.4864        11.6256       .001051       2    2  24
 1.083733      5.4864        11.89653      .001051       2    2  25
 .541867       5.4864        12.16747      .001051       2    0  26

WIRE NO.  3 COORDINATES                                 CONNECTION PULSE
X             Y             Z             RADIUS        END1 END2  NO.
 0             5.4864        12.4384       .001051       2    3  27
-.541867       5.4864        12.16747      .001051       3    3  28
-1.083733      5.4864        11.89653      .001051       3    3  29
-1.6256        5.4864        11.6256       .001051       3    3  30
-2.167467      5.4864        11.35467      .001051       3    3  31
-2.709333      5.4864        11.08373      .001051       3    3  32
-3.2512        5.4864        10.8128       .001051       3    3  33
-3.793067      5.4864        10.54187      .001051       3    3  34
-4.334933      5.4864        10.27093      .001051       3    0  35

WIRE NO.  4 COORDINATES                                 CONNECTION PULSE
X             Y             Z             RADIUS        END1 END2  NO.
-4.8768        5.4864        10            .001051       3    4  36
-4.8768        4.8768        10            .001051       4    4  37
-4.8768        4.2672        10            .001051       4    4  38
-4.8768        3.6576        10            .001051       4    4  39
-4.8768        3.048         10            .001051       4    4  40
-4.8768        2.4384        10            .001051       4    4  41
-4.8768        1.8288        10            .001051       4    4  42
-4.8768        1.2192        10            .001051       4    4  43
-4.8768        .6096         10            .001051       4    4  44
-4.8768        0             10            .001051       4    4  45
-4.8768       -.6096         10            .001051       4    4  46
-4.8768       -1.2192        10            .001051       4    4  47
-4.8768       -1.8288        10            .001051       4    4  48
-4.8768       -2.4384        10            .001051       4    4  49
-4.8768       -3.048         10            .001051       4    4  50
-4.8768       -3.6576        10            .001051       4    4  51
-4.8768       -4.2672        10            .001051       4    4  52
-4.8768       -4.8768        10            .001051       4    0  53

WIRE NO.  5 COORDINATES                                 CONNECTION PULSE
X             Y             Z             RADIUS        END1 END2  NO.
-4.8768       -5.4864        10            .001051       4    5  54
-4.334933     -5.4864        10.27093      .001051       5    5  55
-3.793067     -5.4864        10.54187      .001051       5    5  56
-3.2512       -5.4864        10.8128       .001051       5    5  57
-2.709333     -5.4864        11.08373      .001051       5    5  58
-2.167467     -5.4864        11.35467      .001051       5    5  59
-1.6256       -5.4864        11.6256       .001051       5    5  60
-1.083733     -5.4864        11.89653      .001051       5    5  61
-.541867      -5.4864        12.16747      .001051       5    0  62

WIRE NO.  6 COORDINATES                                 CONNECTION PULSE
X             Y             Z             RADIUS        END1 END2  NO.
 0            -5.4864        12.4384       .001051       5    6  63
 .541867      -5.4864        12.16747      .001051       6    6  64
 1.083733     -5.4864        11.89653      .001051       6    6  65
 1.6256       -5.4864        11.6256       .001051       6    6  66
 2.167467     -5.4864        11.35467      .001051       6    6  67
 2.709333     -5.4864        11.08373      .001051       6    6  68
 3.2512       -5.4864        10.8128       .001051       6    6  69
 3.793067     -5.4864        10.54187      .001051       6    6  70
 4.334933     -5.4864        10.27093      .001051       6    6  71
 4.8768       -5.4864        10            .001051       6    1  72

NO. OF SOURCES :  1
PULSE NO., VOLTAGE MAGNITUDE, PHASE (DEGREES):  9 , 1 , 0
NUMBER OF LOADS 0

********************    SOURCE DATA     ********************
PULSE  9      VOLTAGE = ( 1 , 0 J)
              CURRENT = ( 3.830568E-03 ,  5.971059E-04 J)
              IMPEDANCE = ( 254.8651 , -39.72816 J)
              POWER =  1.915284E-03  WATTS

********************    CURRENT DATA    ********************

WIRE NO.  1 :
PULSE         REAL          IMAGINARY     MAGNITUDE     PHASE
 NO.          (AMPS)        (AMPS)        (AMPS)        (DEGREES)
J             -3.544436E-05 -8.011051E-04  8.018888E-04 -92.53336 
 1             6.327081E-04 -7.462363E-04  9.783599E-04 -49.70654 
 2             1.282081E-03 -6.593693E-04  1.441700E-03 -27.21658 
 3             1.892518E-03 -5.436821E-04  1.969064E-03 -16.02829 
 4             2.445099E-03 -4.023058E-04  2.477975E-03 -9.343481 
 5             2.922688E-03 -2.387628E-04  2.932424E-03 -4.670287 
 6             3.310463E-03 -5.671878E-05  3.310949E-03 -.981563  
 7             3.596383E-03  1.406691E-04  3.599133E-03  2.239928 
 8             3.771566E-03  3.527520E-04  3.788027E-03  5.34329  
 9             3.830568E-03  5.971059E-04  3.876827E-03  8.859919 
 10            3.771560E-03  3.527536E-04  3.788020E-03  5.343324 
 11            3.596370E-03  1.406723E-04  3.599120E-03  2.239987 
 12            3.310444E-03 -5.671410E-05  3.310930E-03 -.981488  
 13            2.922663E-03 -2.387569E-04  2.932399E-03 -4.670211 
 14            2.445069E-03 -4.022988E-04  2.477944E-03 -9.343431 
 15            1.892484E-03 -5.436742E-04  1.969030E-03 -16.02834 
 16            1.282045E-03 -6.593608E-04  1.441664E-03 -27.21694 
 17            6.326700E-04 -7.462275E-04  9.783285E-04 -49.7079  
J             -3.548317E-05 -8.010962E-04  8.018817E-04 -92.53616 
WIRE NO.  2 :
PULSE         REAL          IMAGINARY     MAGNITUDE     PHASE
 NO.          (AMPS)        (AMPS)        (AMPS)        (DEGREES)
J             -3.548317E-05 -8.010962E-04  8.018817E-04 -92.53616 
 19           -6.986181E-04 -8.434972E-04  1.095242E-03 -129.6329 
 20           -1.340671E-03 -8.682520E-04  1.597266E-03 -147.0719 
 21           -1.942128E-03 -8.744127E-04  2.129896E-03 -155.7611 
 22           -2.484710E-03 -8.615075E-04  2.629825E-03 -160.8774 
 23           -2.951915E-03 -8.296710E-04  3.066294E-03 -164.3013 
 24           -3.329522E-03 -7.796499E-04  3.419587E-03 -166.8209 
 25           -3.606002E-03 -7.127790E-04  3.675772E-03 -168.8188 
 26           -3.772773E-03 -6.309321E-04  3.825165E-03 -170.5061 
J             -3.823694E-03 -5.363864E-04  3.861133E-03 -172.0147 
WIRE NO.  3 :
PULSE         REAL          IMAGINARY     MAGNITUDE     PHASE
 NO.          (AMPS)        (AMPS)        (AMPS)        (DEGREES)
J             -3.823694E-03 -5.363864E-04  3.861133E-03 -172.0147 
 28           -3.781963E-03 -4.357044E-04  3.806978E-03 -173.4282 
 29           -3.625094E-03 -3.284865E-04  3.639946E-03 -174.8223 
 30           -3.358800E-03 -2.182071E-04  3.365881E-03 -176.283  
 31           -2.991283E-03 -1.083703E-04  2.993245E-03 -177.9252 
 32           -2.533706E-03 -2.474238E-06  2.533707E-03 -179.944  
 33           -1.999946E-03  9.608566E-05  2.002253E-03  177.2494 
 34           -1.406186E-03  1.841025E-04  1.418187E-03  172.5411 
 35           -7.704224E-04  2.585980E-04  8.126645E-04  161.4453 
J             -1.118836E-04  3.164774E-04  3.356723E-04  109.4699 
WIRE NO.  4 :
PULSE         REAL          IMAGINARY     MAGNITUDE     PHASE
 NO.          (AMPS)        (AMPS)        (AMPS)        (DEGREES)
J             -1.118836E-04  3.164774E-04  3.356723E-04  109.4699 
 37            5.514646E-04  3.707465E-04  6.645044E-04  33.91272 
 38            1.196476E-03  4.239125E-04  1.269353E-03  19.50928 
 39            1.803049E-03  4.740290E-04  1.864320E-03  14.72996 
 40            2.352306E-03  5.194536E-04  2.408978E-03  12.45263 
 41            2.827140E-03  5.587385E-04  2.881824E-03  11.17952 
 42            3.212752E-03  5.906463E-04  3.266594E-03  10.41718 
 43            3.497117E-03  6.141774E-04  3.550639E-03  9.960929 
 44            3.671362E-03  6.285967E-04  3.724787E-03  9.715757 
 45            3.730053E-03  6.334541E-04  3.783458E-03  9.638268 
 46            3.671356E-03  6.285980E-04  3.724780E-03  9.715794 
 47            3.497104E-03  6.141801E-04  3.550627E-03  9.961008 
 48            3.212733E-03  5.906501E-04  3.266576E-03  10.41731 
 49            2.827115E-03  5.587435E-04  2.881801E-03  11.17971 
 50            2.352276E-03  5.194595E-04  2.408950E-03  12.45292 
 51            1.803016E-03  4.740356E-04  1.864289E-03  14.73042 
 52            1.196440E-03  4.239195E-04  1.269321E-03  19.51012 
 53            5.514266E-04  3.707538E-04  6.644770E-04  33.91506 
J             -1.119222E-04  3.164847E-04  3.356920E-04  109.4757 
WIRE NO.  5 :
PULSE         REAL          IMAGINARY     MAGNITUDE     PHASE
 NO.          (AMPS)        (AMPS)        (AMPS)        (DEGREES)
J             -1.119222E-04  3.164847E-04  3.356920E-04  109.4757 
 55           -7.704612E-04  2.586052E-04  8.127036E-04  161.4457 
 56           -1.406224E-03  1.841093E-04  1.418225E-03  172.541  
 57           -1.999980E-03  9.609187E-05  2.002287E-03  177.2493 
 58           -2.533736E-03 -2.468783E-06  2.533738E-03 -179.9442 
 59           -2.991308E-03 -1.083658E-04  2.993270E-03 -177.9253 
 60           -3.358820E-03 -2.182037E-04  3.365900E-03 -176.283  
 61           -3.625107E-03 -3.284843E-04  3.639959E-03 -174.8224 
 62           -3.781970E-03 -4.357035E-04  3.806985E-03 -173.4282 
J             -3.823694E-03 -5.363870E-04  3.861133E-03 -172.0147 
WIRE NO.  6 :
PULSE         REAL          IMAGINARY     MAGNITUDE     PHASE
 NO.          (AMPS)        (AMPS)        (AMPS)        (DEGREES)
J             -3.823694E-03 -5.363870E-04  3.861133E-03 -172.0147 
 64           -3.772766E-03 -6.309339E-04  3.825159E-03 -170.5061 
 65           -3.605988E-03 -7.127823E-04  3.675759E-03 -168.8187 
 66           -3.329503E-03 -7.796547E-04  3.419569E-03 -166.8208 
 67           -2.951890E-03 -8.296770E-04  3.066271E-03 -164.3011 
 68           -2.484680E-03 -8.615146E-04  2.629798E-03 -160.877  
 69           -1.942094E-03 -8.744205E-04  2.129868E-03 -155.7605 
 70           -1.340633E-03 -8.682604E-04  1.597239E-03 -147.0709 
 71           -6.985791E-04 -8.435059E-04  1.095224E-03 -129.6311 
J             -3.544436E-05 -8.011051E-04  8.018888E-04 -92.53336 

********************     FAR FIELD      ********************

ZENITH ANGLE : INITIAL,INCREMENT,NUMBER: 0 , 10 , 10
AZIMUTH ANGLE: INITIAL,INCREMENT,NUMBER: 0 , 10 , 37

********************    PATTERN DATA    ********************
ZENITH        AZIMUTH       VERTICAL      HORIZONTAL    TOTAL
 ANGLE         ANGLE        PATTERN (DB)  PATTERN (DB)  PATTERN (DB)
 0             0            -141.3521     -19.84445     -19.84445
 10            0            -120.0643     -24.48854     -24.48854
 20            0            -113.3277     -11.08442     -11.08442
 30            0            -109.1286     -3.719937     -3.719937
 40            0            -106.8428      1.546488      1.546488
 50            0            -106.6912      4.980026      4.980026
 60            0            -109.0686      6.570737      6.570737
 70            0            -112.5876      5.997685      5.997685
 80            0            -113.5478      1.87569       1.87569 
 90            0            -999          -999          -999     
 0             10           -35.05103     -19.97742     -19.84445
 10            10           -29.08275     -24.84085     -23.45296
 20            10           -23.18118     -11.41701     -11.13693
 30            10           -17.88252     -4.124927     -3.94585 
 40            10           -13.36712      1.070654      1.224224
 50            10           -11.11044      4.453635      4.572599
 60            10           -11.33563      6.008687      6.088007
 70            10           -14.15937      5.410826      5.45851 
 80            10           -19.87932      1.273782      1.306957
 90            10           -999          -999          -999     
 0             20           -29.16341     -20.38474     -19.84445
 10            20           -23.66506     -25.22428     -21.36477
 20            20           -17.78519     -12.38346     -11.28333
 30            20           -12.47235     -5.396592     -4.619004
 40            20           -7.931572     -.461847       .253556 
 50            20           -5.66399       2.736035      3.322357
 60            20           -5.889396      4.160213      4.569653
 70            20           -8.722077      3.471172      3.725663
 80            20           -14.45301     -.721231      -.541108 
 90            20           -999          -999          -999     
 0             30           -25.86505     -21.09384     -19.84445
 10            30           -21.17802     -23.91799     -19.32511
 20            30           -15.35173     -13.78462     -11.48757
 30            30           -10.01979     -7.720321     -5.709311
 40            30           -5.431987     -3.473885     -1.333202
 50            30           -3.141453     -.773789       1.212068
 60            30           -3.362134      .288975       1.846612
 70            30           -6.202486     -.656638       .411655 
 80            30           -11.9431      -5.006775     -4.206022
 90            30           -999          -999          -999     
 0             40           -23.6831      -22.15937     -19.84445
 10            40           -20.18813     -21.11951     -17.6186 
 20            40           -14.49043     -14.90723     -11.68353
 30            40           -9.145606     -11.3412      -7.095806
 40            40           -4.478884     -9.284234     -3.238006
 50            40           -2.14316      -8.513687     -1.241826
 60            40           -2.344176     -9.117895     -1.515612
 70            40           -5.178087     -11.41078     -4.250585
 80            40           -10.91337     -16.65884     -9.887836
 90            40           -999          -999          -999     
 0             50           -22.15937     -23.68311     -19.84445
 10            50           -20.26755     -18.42289     -16.23771
 20            50           -14.89326     -14.68543     -11.7778 
 30            50           -9.577        -14.77031     -8.429352
 40            50           -4.776234     -15.12755     -4.393097
 50            50           -2.350228     -10.3663      -1.713503
 60            50           -2.495812     -6.642178     -1.081585
 70            50           -5.284894     -5.915785     -2.578593
 80            50           -10.97555     -9.352458     -7.078315
 90            50           -999          -999          -999     
 0             60           -21.09384     -25.86506     -19.84445
 10            60           -21.11401     -16.38388     -15.12419
 20            60           -16.61249     -13.35432     -11.67447
 30            60           -11.51812     -12.80492     -9.103737
 40            60           -6.473832     -7.100199     -3.765433
 50            60           -3.854383     -1.666181      .386401 
 60            60           -3.859563      1.137196      2.331285
 70            60           -6.511981      1.252918      1.924763
 80            60           -12.06446     -2.510872     -2.054412
 90            60           -999          -999          -999     
 0             70           -20.38473     -29.16343     -19.84445
 10            70           -21.94638     -15.02725     -14.2236 
 20            70           -19.65133     -12.01047     -11.32063
 30            70           -15.92284     -9.751508     -8.812139
 40            70           -10.4327      -3.020585     -2.296383
 50            70           -7.314953      2.050298      2.525919
 60            70           -6.934579      4.574618      4.871072
 70            70           -9.196066      4.516466      4.697373
 80            70           -14.34449      .654632       .789868 
 90            70           -999          -999          -999     
 0             80           -19.97742     -35.05106     -19.84445
 10            80           -21.2719      -14.28647     -13.49394
 20            80           -20.83257     -11.18417     -10.73707
 30            80           -22.3596      -8.121428     -7.960768
 40            80           -20.86499     -1.147389     -1.101287
 50            80           -15.95928      3.812584      3.858116
 60            80           -13.88026      6.248879      6.290833
 70            80           -14.57204      6.13076       6.167544
 80            80           -18.18694      2.232713      2.271964
 90            80           -999          -999          -999     
 0             90           -19.84445     -141.3521     -19.84445
 10            90           -19.12595     -14.08947     -12.90489
 20            90           -16.96441     -10.97753     -10.00167
 30            90           -14.70617     -7.84535      -7.03179 
 40            90           -13.80101     -.698015      -.490492 
 50            90           -15.00349      4.312971      4.363508
 60            90           -18.82758      6.766433      6.778394
 70            90           -22.03824      6.654101      6.659966
 80            90           -21.7611       2.757394      2.772711
 90            90           -999          -999          -999     
 0             100          -19.97742     -35.05103     -19.84445
 10            100          -16.92836     -14.34201     -12.43513
 20            100          -13.35553     -11.31365     -9.205376
 30            100          -9.518269     -8.892792     -6.18398 
 40            100          -6.881417     -1.552563     -.436018 
 50            100          -6.288916      3.682179      4.098741
 60            100          -8.216053      6.256413      6.408782
 70            100          -12.96102      6.213769      6.265972
 80            100          -18.23562      2.354895      2.392638
 90            100          -999          -999          -999     
 0             110          -20.38474     -29.16341     -19.84445
 10            110          -15.31199     -14.8593      -12.06945
 20            110          -11.01689     -11.89095     -8.421666
 30            110          -6.630764     -11.34004     -5.36581 
 40            110          -3.460833     -4.072652     -.745678 
 50            110          -2.39467       1.688852      3.120637
 60            110          -3.833607      4.548557      5.137138
 70            110          -8.121596      4.668392      4.891033
 80            110          -14.30171      .897253       1.026497
 90            110          -999          -999          -999     
 0             120          -21.09384     -25.86505     -19.84445
 10            120          -14.3844      -15.27316     -11.79578
 20            120          -9.700665     -12.02667     -7.699473
 30            120          -5.063168     -13.5358      -4.485949
 40            120          -1.63763      -9.703405     -1.007649
 50            120          -.343539      -2.64693       1.666016
 60            120          -1.549304      .933338       2.877353
 70            120          -5.588498      1.432011      2.218703
 80            120          -11.94657     -2.145098     -1.712743
 90            120          -999          -999          -999     
 0             130          -22.15937     -23.6831      -19.84445
 10            130          -14.15865     -15.12038     -11.60265
 20            130          -9.249068     -11.10447     -7.06813 
 30            130          -4.47821      -10.57682     -3.5246  
 40            130          -.90312       -13.74683     -.683147 
 50            130           .5316        -14.02527      .681086 
 60            130          -.525863      -7.875396      .20801  
 70            130          -4.399314     -5.918984     -2.082716
 80            130          -10.80152     -8.83149      -6.695443
 90            130          -999          -999          -999     
 0             140          -23.68311     -22.15937     -19.84445
 10            140          -14.68624     -14.29762     -11.47728
 20            140          -9.638493     -9.471506     -6.543897
 30            140          -4.792326     -6.502725     -2.553563
 40            140          -1.121563     -5.067437      .349323 
 50            140           .409595      -5.18857       1.466533
 60            140          -.541622      -6.99146       .344958 
 70            140          -4.291384     -10.67831     -3.393119
 80            140          -10.69752     -17.13267     -9.808222
 90            140          -999          -999          -999     
 0             150          -25.86506     -21.09384     -19.84445
 10            150          -16.12802     -13.19001     -11.40486
 20            150          -10.99418     -7.852114     -6.13468 
 30            150          -6.105214     -3.628549     -1.682376
 40            150          -2.371938     -.549269       1.644621
 50            150          -.773279       1.227975      3.351916
 60            150          -1.646759      1.537889      3.24146 
 70            150          -5.302149      .013096       1.132731
 80            150          -11.69643     -4.710063     -3.917695
 90            150          -999          -999          -999     
 0             160          -29.16343     -20.38473     -19.84445
 10            160          -18.9149      -12.20985     -11.36928
 20            160          -13.72877     -6.614414     -5.843131
 30            160          -8.81646      -1.789846     -1.004165
 40            160          -5.043858      1.966387      2.754782
 50            160          -3.400145      4.365565      5.037294
 60            160          -4.219687      5.21356       5.682177
 70            160          -7.806969      4.120379      4.390449
 80            160          -14.18466     -.316099      -.141449 
 90            160          -999          -999          -999     
 0             170          -35.05106     -19.97742     -19.84445
 10            170          -24.50216     -11.57107     -11.35537
 20            170          -19.28787     -5.861982     -5.669003
 30            170          -14.36423     -.763296      -.57778  
 40            170          -10.57         3.2914        3.466332
 50            170          -8.900398      5.945093      6.085121
 60            170          -9.688031      6.998068      7.090231
 70            170          -13.23375      6.059792      6.110595
 80            170          -19.59783      1.721786      1.753718
 90            170          -999          -999          -999     
 0             180          -141.3521     -19.84445     -19.84445
 10            180          -120.5733     -11.35209     -11.35209
 20            180          -113.3896     -5.611151     -5.611151
 30            180          -109.0247     -.432755      -.432755 
 40            180          -106.6693      3.708496      3.708496
 50            180          -106.4849      6.434222      6.434222
 60            180          -108.8691      7.54391       7.54391 
 70            180          -112.6636      6.647743      6.647743
 80            180          -113.8444      2.336177      2.336177
 90            180          -999          -999          -999     
 0             190          -35.05103     -19.97742     -19.84445
 10            190          -24.50209     -11.57108     -11.35538
 20            190          -19.28771     -5.861995     -5.669009
 30            190          -14.36401     -.76331       -.577784 
 40            190          -10.56979      3.291385      3.466326
 50            190          -8.900219      5.945078      6.085112
 60            190          -9.6879        6.998053      7.090219
 70            190          -13.2337       6.059778      6.110581
 80            190          -19.59785      1.721772      1.753704
 90            190          -999          -999          -999     
 0             200          -29.16341     -20.38474     -19.84445
 10            200          -18.91487     -12.20987     -11.3693 
 20            200          -13.7287      -6.61444      -5.843142
 30            200          -8.816359     -1.789877     -1.004173
 40            200          -5.043763      1.966355      2.754771
 50            200          -3.400066      4.365532      5.037277
 60            200          -4.219632      5.213526      5.682152
 70            200          -7.806951      4.120346      4.390419
 80            200          -14.18467     -.316132      -.141482 
 90            200          -999          -999          -999     
 0             210          -25.86505     -21.09384     -19.84445
 10            210          -16.12801     -13.19004     -11.40488
 20            210          -10.99414     -7.852156     -6.134696
 30            210          -6.105158     -3.6286       -1.682389
 40            210          -2.371888     -.549329       1.644605
 50            210          -.77324        1.227909      3.351891
 60            210          -1.646735      1.537818      3.24142 
 70            210          -5.302148      .013024       1.132675
 80            210          -11.69644     -4.710137     -3.917759
 90            210          -999          -999          -999     
 0             220          -23.6831      -22.15937     -19.84445
 10            220          -14.68624     -14.29766     -11.4773 
 20            220          -9.638477     -9.471562     -6.543918
 30            220          -4.792297     -6.502807     -2.553578
 40            220          -1.121539     -5.067553      .349306 
 50            220           .40961       -5.188729      1.46651 
 60            220          -.541619      -6.991675      .344921 
 70            220          -4.291396     -10.67859     -3.393181
 80            220          -10.69754     -17.13301     -9.808302
 90            220          -999          -999          -999     
 0             230          -22.15937     -23.68311     -19.84445
 10            230          -14.15867     -15.12041     -11.60267
 20            230          -9.249068     -11.10453     -7.068154
 30            230          -4.478202     -10.57694     -3.524618
 40            230          -.903118      -13.74708     -.683158 
 50            230           .531593      -14.02514      .681085 
 60            230          -.525878      -7.875217      .208025 
 70            230          -4.39934      -5.918849     -2.082675
 80            230          -10.80154     -8.831376     -6.695385
 90            230          -999          -999          -999     
 0             240          -21.09384     -25.86506     -19.84445
 10            240          -14.38442     -15.27318     -11.7958 
 20            240          -9.700681     -12.02671     -7.699499
 30            240          -5.06318      -13.53586     -4.485968
 40            240          -1.63765      -9.703296     -1.007652
 50            240          -.343568      -2.646841      1.666031
 60            240          -1.549341      .933405       2.877382
 70            240          -5.588542      1.432065      2.218742
 80            240          -11.94662     -2.14505      -1.712704
 90            240          -999          -999          -999     
 0             250          -20.38473     -29.16343     -19.84445
 10            250          -15.31203     -14.8593      -12.06947
 20            250          -11.01692     -11.89096     -8.421691
 30            250          -6.630798     -11.34002     -5.365829
 40            250          -3.46088      -4.072596     -.745677 
 50            250          -2.394729      1.688895      3.120651
 60            250          -3.833677      4.54859       5.137158
 70            250          -8.121672      4.66842       4.891056
 80            250          -14.30179      .897278       1.026519
 90            250          -999          -999          -999     
 0             260          -19.97742     -35.05106     -19.84445
 10            260          -16.92841     -14.34201     -12.43515
 20            260          -13.35558     -11.31365     -9.205397
 30            260          -9.518335     -8.89277      -6.183999
 40            260          -6.881509     -1.552539     -.43602  
 50            260          -6.289034      3.682197      4.098748
 60            260          -8.216193      6.256428      6.408791
 70            260          -12.96118      6.213781      6.265982
 80            260          -18.23577      2.354906      2.392648
 90            260          -999          -999          -999     
 0             270          -19.84445     -141.3521     -19.84445
 10            270          -19.12599     -14.08946     -12.9049 
 20            270          -16.96448     -10.97753     -10.00168
 30            270          -14.70629     -7.845348     -7.031809
 40            270          -13.80123     -.698014      -.4905   
 50            270          -15.00384      4.312972      4.363505
 60            270          -18.82808      6.766433      6.778393
 70            270          -22.03858      6.654101      6.659965
 80            270          -21.76129      2.757394      2.77271 
 90            270          -999          -999          -999     
 0             280          -19.97742     -35.05103     -19.84445
 10            280          -21.2719      -14.28646     -13.49394
 20            280          -20.83254     -11.18416     -10.73707
 30            280          -22.3596      -8.121445     -7.960784
 40            280          -20.86473     -1.147409     -1.101304
 50            280          -15.95899      3.812567      3.858103
 60            280          -13.88004      6.248865      6.290821
 70            280          -14.57192      6.130748      6.167533
 80            280          -18.18694      2.232701      2.271953
 90            280          -999          -999          -999     
 0             290          -20.38474     -29.16341     -19.84445
 10            290          -21.94629     -15.02725     -14.22358
 20            290          -19.65118     -12.01046     -11.3206 
 30            290          -15.92272     -9.751542     -8.812144
 40            290          -10.43259     -3.020632     -2.296407
 50            290          -7.314851      2.050259      2.525895
 60            290          -6.934485      4.574586      4.871048
 70            290          -9.195992      4.516438      4.697349
 80            290          -14.34445      .654606       .789844 
 90            290          -999          -999          -999     
 0             300          -21.09384     -25.86505     -19.84445
 10            300          -21.11389     -16.38388     -15.12415
 20            300          -16.61238     -13.3543      -11.67442
 30            300          -11.51808     -12.80495     -9.103721
 40            300          -6.473792     -7.10029      -3.765454
 50            300          -3.854337     -1.666259      .386369 
 60            300          -3.859514      1.137132      2.331249
 70            300          -6.511932      1.252863      1.924723
 80            300          -12.06441     -2.510921     -2.054452
 90            300          -999          -999          -999     
 0             310          -22.15937     -23.6831      -19.84445
 10            310          -20.26743     -18.42288     -16.23766
 20            310          -14.89319     -14.68537     -11.77774
 30            310          -9.576992     -14.77019     -8.429319
 40            310          -4.77623      -15.12756     -4.393093
 50            310          -2.350214     -10.36647     -1.713515
 60            310          -2.495789     -6.642335     -1.081612
 70            310          -5.28486      -5.915917     -2.578637
 80            310          -10.9755      -9.352576     -7.078367
 90            310          -999          -999          -999     
 0             320          -23.68311     -22.15937     -19.84445
 10            320          -20.18802     -21.11949     -17.61853
 20            320          -14.49039     -14.90714     -11.68347
 30            320          -9.145629     -11.34106     -7.09577 
 40            320          -4.47891      -9.284051     -3.23798 
 50            320          -2.143174     -8.513458     -1.241794
 60            320          -2.344174     -9.117624     -1.515564
 70            320          -5.178065     -11.41048     -4.250509
 80            320          -10.91333     -16.65852     -9.887731
 90            320          -999          -999          -999     
 0             330          -25.86506     -21.09384     -19.84445
 10            330          -21.1779      -23.91792     -19.32501
 20            330          -15.35171     -13.78454     -11.48751
 30            330          -10.01984     -7.720241     -5.709282
 40            330          -5.432047     -3.473802     -1.333175
 50            330          -3.141497     -.773706       1.212105
 60            330          -3.362155      .289056       1.846662
 70            330          -6.202474     -.656559       .411719 
 80            330          -11.94305     -5.006698     -4.205949
 90            330          -999          -999          -999     
 0             340          -29.16343     -20.38473     -19.84445
 10            340          -23.66491     -25.2242      -21.36465
 20            340          -17.78519     -12.38341     -11.28329
 30            340          -12.47246     -5.396546     -4.618985
 40            340          -7.931687     -.461804       .253575 
 50            340          -5.66408       2.736075      3.322381
 60            340          -5.88945       4.160251      4.569683
 70            340          -8.722077      3.471208      3.725698
 80            340          -14.45293     -.721196      -.541071 
 90            340          -999          -999          -999     
 0             350          -35.05106     -19.97742     -19.84445
 10            350          -29.0825      -24.8408      -23.45286
 20            350          -23.18121     -11.41699     -11.13691
 30            350          -17.88277     -4.124907     -3.94584 
 40            350          -13.36738      1.070673      1.224233
 50            350          -11.11064      4.453653      4.572611
 60            350          -11.33577      6.008704      6.08802 
 70            350          -14.15939      5.410841      5.458526
 80            350          -19.87918      1.273796      1.306973
 90            350          -999          -999          -999     
 0             360          -141.3521     -19.84445     -19.84445
 10            360          -120.0643     -24.48854     -24.48854
 20            360          -113.3277     -11.08442     -11.08442
 30            360          -109.1286     -3.719937     -3.719937
 40            360          -106.8428      1.546488      1.546488
 50            360          -106.6912      4.980026      4.980026
 60            360          -109.0686      6.570737      6.570737
 70            360          -112.5876      5.997685      5.997685
 80            360          -113.5478      1.87569       1.87569 
 90            360          -999          -999          -999     