                   ****************************************
                     MINI-NUMERICAL ELECTROMAGNETICS CODE
                                   MININEC
                       07-08-2022              19:01:21
                   ****************************************
 
FREQUENCY (MHZ): 299.8 
    WAVE LENGTH =  1  METERS
 
ENVIRONMENT (+1 FOR FREE SPACE, -1 FOR GROUND PLANE): -1 
 NUMBER OF MEDIA (0 FOR PERFECTLY CONDUCTING GROUND):  0 
 
NO. OF WIRES: 2 
 
WIRE NO. 1 
            COORDINATES                                 END         NO. OF
   X             Y             Z          RADIUS     CONNECTION     SEGMENTS
 0             0             0                          -1 
 0             0             .191          .004          0             4 
 
WIRE NO. 2 
            COORDINATES                                 END         NO. OF
   X             Y             Z          RADIUS     CONNECTION     SEGMENTS
 0             0             .191                        1 
 0             .309          .191          .004          0             6 
 
                  **** ANTENNA GEOMETRY ****
 
WIRE NO.  1  COORDINATES                                CONNECTION PULSE
X             Y             Z             RADIUS        END1 END2  NO.
 0             0             0             .004          -1    1    1
 0             0             .04775        .004           1    1    2
 0             0             .0955         .004           1    1    3
 0             0             .14325        .004           1    0    4
 
WIRE NO.  2  COORDINATES                                CONNECTION PULSE
X             Y             Z             RADIUS        END1 END2  NO.
 0             0             .191          .004           1    2    5
 0             .0515         .191          .004           2    2    6
 0             .103          .191          .004           2    2    7
 0             .1545         .191          .004           2    2    8
 0             .206          .191          .004           2    2    9
 0             .2575         .191          .004           2    0   10
 
NO. OF SOURCES :  1 
PULSE NO., VOLTAGE MAGNITUDE, PHASE (DEGREES):  1 , 1 , 0 
NUMBER OF LOADS 0 
 
********************    SOURCE DATA     ********************
PULSE  1      VOLTAGE = ( 1 , 0 J)
              CURRENT = ( 9.852219E-04 , 1.479994E-03 J)
              IMPEDANCE = ( 311.6763 ,-468.1978 J)
              POWER =  4.92611E-04  WATTS
 
********************    CURRENT DATA    ********************
 
WIRE NO.  1 :
PULSE         REAL          IMAGINARY     MAGNITUDE     PHASE
 NO.          (AMPS)        (AMPS)        (AMPS)        (DEGREES)
 1             9.852219E-04  1.479994E-03  1.777932E-03  56.34855 
 2             9.619937E-04 -7.880398E-04  1.243559E-03 -39.32342 
 3             8.940909E-04 -2.186379E-03  2.362128E-03 -67.75854 
 4             7.867693E-04 -3.248637E-03  3.342551E-03 -76.38598 
J              6.457106E-04 -3.94368E-03   3.996193E-03 -80.7013 
 
WIRE NO.  2 :
PULSE         REAL          IMAGINARY     MAGNITUDE     PHASE
 NO.          (AMPS)        (AMPS)        (AMPS)        (DEGREES)
J              6.457106E-04 -3.94368E-03   3.996193E-03 -80.7013 
 6             5.160283E-04 -4.466374E-03  4.496085E-03 -83.40948 
 7             3.756768E-04 -4.519853E-03  4.535438E-03 -85.24866 
 8             2.408028E-04 -4.09305E-03   4.100127E-03 -86.63304 
 9             1.252196E-04 -3.20149E-03   3.203937E-03 -87.76013 
 10            4.121348E-05 -1.891712E-03  1.892161E-03 -88.75193 
E              0             0             0             0 
 
********************     FAR FIELD      ********************
 
ZENITH ANGLE : INITIAL,INCREMENT,NUMBER:  0 , 5 , 19 
AZIMUTH ANGLE: INITIAL,INCREMENT,NUMBER:  0 , 5 , 73 
 
 
FILENAME (NAME.OUT): INVL.GNN
 
********************    PATTERN DATA    ********************
ZENITH        AZIMUTH       VERTICAL      HORIZONTAL    TOTAL
 ANGLE         ANGLE        PATTERN (DB)  PATTERN (DB)  PATTERN (DB)
 0             0            -999           6.553319      6.553319 
 5             0            -26.24729      6.537799      6.540086 
 10            0            -20.16418      6.490096      6.49947 
 15            0            -16.54279      6.406814      6.42878 
 20            0            -13.9139       6.28227       6.323588 
 25            0            -11.82347      6.108472      6.177837 
 30            0            -10.07543      5.875015      5.983983 
 35            0            -8.570711      5.56883       5.733121 
 40            0            -7.254909      5.173741      5.415184 
 45            0            -6.096859      4.669585      5.019177 
 50            0            -5.078391      4.030718      4.533641 
 55            0            -4.188954      3.223298      3.947502 
 60            0            -3.422562      2.200315      3.251955 
 65            0            -2.775968      .8918711      2.444506 
 70            0            -2.247571     -.8157298      1.53743 
 75            0            -1.83669      -3.131709      .5742303 
 80            0            -1.543146     -6.521115     -.3445014 
 85            0            -1.366965     -12.46155     -1.041885 
 90            0            -1.308227     -133.6393     -1.308227 
 0             5            -14.64103      6.520202      6.553318 
 5             5            -15.46351      6.505858      6.533369 
 10            5            -15.67464      6.459216      6.485708 
 15            5            -15.08694      6.376864      6.407758 
 20            5            -13.85864      6.253126      6.29525 
 25            5            -12.32339      6.080009      6.14229 
 30            5            -10.73384      5.847115      5.941518 
 35            5            -9.216232      5.541388      5.684239 
 40            5            -7.820561      5.146652      5.360617 
 45            5            -6.562643      4.642764      4.959945 
 50            5            -5.445045      4.004085      4.471099 
 55            5            -4.465949      3.196788      3.883447 
 60            5            -3.622585      2.173883      3.188772 
 65            5            -2.912415      .8654782      2.385326 
 70            5            -2.333471     -.8421084      1.486252 
 75            5            -1.884347     -3.158087      .5356509 
 80            5            -1.56411      -6.547499     -.3667725 
 85            5            -1.372172     -12.48795     -1.048617 
 90            5            -1.308227     -132.4001     -1.308227 
 0             10           -8.65347       6.420347      6.553318 
 5             10           -9.148279      6.40706       6.526268 
 10            10           -9.581307      6.361133      6.470301 
 15            10           -9.881984      6.279165      6.383035 
 20            10           -9.96056       6.155494      6.260434 
 25            10           -9.740626      5.982147      6.096905 
 30            10           -9.203924      5.748766      5.88544 
 35            10           -8.406942      5.442328      5.617748 
 40            10           -7.450591      5.046708      5.284465 
 45            10           -6.435825      4.541805      4.875427 
 50            10           -5.439299      3.902042      4.380168 
 55            10           -4.510848      3.093632      3.788859 
 60            10           -3.680121      2.069642      3.094306 
 65            10           -2.963885      .7602276      2.296025 
 70            10           -2.371356     -.9482502      1.408566 
 75            10           -1.907487     -3.264964      .4769358 
 80            10           -1.574903     -6.654924     -.4006539 
 85            10           -1.374942     -12.59571     -1.05884 
 90            10           -1.308227     -133.3132     -1.308227 
 0             15           -5.186905      6.25219       6.553318 
 5             15           -5.541838      6.239836      6.518842 
 10            15           -5.918438      6.194292      6.453419 
 15            15           -6.293042      6.112173      6.354886 
 20            15           -6.624933      5.987852      6.219533 
 25            15           -6.855582      5.813404      6.042184 
 30            15           -6.917744      5.578517      5.81633 
 35            15           -6.758449      5.270251      5.534289 
 40            15           -6.36617       4.872554      5.187398 
 45            15           -5.780224      4.365412      4.766316 
 50            15           -5.073128      3.723333      4.261561 
 55            15           -4.322546      2.912625      3.664502 
 60            15           -3.592605      1.886434      2.969413 
 65            15           -2.928783      .5750017      2.177603 
 70            15           -2.360538     -1.135236      1.305521 
 75            15           -1.905901     -3.453392      .3992553 
 80            15           -1.575492     -6.844417     -.4452589 
 85            15           -1.375269     -12.78586     -1.072226 
 90            15           -1.308227     -134.8524     -1.308227 
 0             20           -2.765767      6.013027      6.553318 
 5             20           -3.046104      6.001478      6.511172 
 10            20           -3.374351      5.956002      6.435274 
 15            20           -3.740942      5.873234      6.323704 
 20            20           -4.126516      5.747589      6.17313 
 25            20           -4.498219      5.571217      5.978893 
 30            20           -4.807851      5.333885      5.735133 
 35            20           -4.996482      5.022749      5.434948 
 40            20           -5.009882      4.621868      5.07061 
 45            20           -4.821537      4.111345      4.633891 
 50            20           -4.44809       3.465812      4.116634 
 55            20           -3.943537      2.651697      3.511818 
 60            20           -3.37745       1.622269      2.815678 
 65            20           -2.814418      .3078832      2.031817 
 70            20           -2.304209     -1.404927      1.179004 
 75            20           -1.880978     -3.725176      .3044238 
 80            20           -1.566407     -7.117757     -.4992842 
 85            20           -1.373281     -13.06015     -1.088315 
 90            20           -1.308227     -136.5313     -1.308227 
 0             25           -.927812       5.698821      6.553318 
 5             25           -1.162259      5.687954      6.503353 
 10            25           -1.456334      5.642251      6.416128 
 15            25           -1.805942      5.558376      6.289978 
 20            25           -2.201129      5.430806      6.121983 
 25            25           -2.622905      5.251772      5.908074 
 30            25           -3.03983       5.011147      5.64315 
 35            25           -3.406376      4.696208      5.321258 
 40            25           -3.667115      4.29115       4.935827 
 45            25           -3.770628      3.776225      4.480025 
 50            25           -3.690339      3.126214      3.947393 
 55            25           -3.439239      2.307701      3.332958 
 60            25           -3.065868      1.274108      2.635417 
 65            25           -2.635124     -4.407531E-02  1.861168 
 70            25           -2.208833     -1.760182      1.031621 
 75            25           -1.835508     -4.083117      .1948308 
 80            25           -1.548683     -7.477685     -.5610797 
 85            25           -1.369209     -13.4213      -1.106547 
 90            25           -1.308227     -134.2843     -1.308227 
 0             30            .5326431      5.303915      6.553318 
 5             30            .3290107      5.293616      6.495487 
 10            30            5.921578E-02  5.24742       6.396282 
 15            30           -.2751577      5.162045      6.254292 
 20            30           -.668805       5.032029      6.067021 
 25            30           -1.110257      4.849697      5.831023 
 30            30           -1.578675      4.605056      5.542043 
 35            30           -2.040724      4.285517      5.195212 
 40            30           -2.449808      3.875432      4.785316 
 45            30           -2.751734      3.355231      4.307222 
 50            30           -2.899684      2.699868      3.756536 
 55            30           -2.874026      1.876114      3.13081 
 60            30           -2.693653      .837556       2.431713 
 65            30           -2.409049     -.4851438      1.668915 
 70            30           -2.083052     -2.205167      .8666577 
 75            30           -1.773308     -4.531296      7.338285E-02 
 80            30           -1.523749     -7.928221     -.6287307 
 85            30           -1.363377     -13.87328     -1.126291 
 90            30           -1.308227     -133.8575     -1.308227 
 0             35            1.725082      4.820587      6.553318 
 5             35            1.543349      4.81074       6.487669 
 10            35            1.291186      4.763838      6.376069 
 15            35            .9688888      4.676633      6.217313 
 20            35            .5792321      4.543746      6.009319 
 25            35            .1293749      4.357616      5.749275 
 30            35           -.3664392      4.10837       5.433809 
 35            35           -.8836309      3.783587      5.059239 
 40            35           -1.384707      3.3678        4.621902 
 45            35           -1.820294      2.841621      4.118623 
 50            35           -2.137672      2.180213      3.547477 
 55            35           -2.297886      1.350533      2.909015 
 60            35           -2.293676      .3063762      2.208424 
 65            35           -2.154886     -1.021419      1.459058 
 70            35           -1.936442     -2.745863      .6880148 
 75            35           -1.698796     -5.07559      -5.661051E-02 
 80            35           -1.493294     -8.475175     -.7001529 
 85            35           -1.35617      -14.42186     -1.146889 
 90            35           -1.308227     -139.8995     -1.308227 
 0             40            2.71462       4.238369      6.553318 
 5             40            2.549067      4.228874      6.480023 
 10            40            2.309937      4.181087      6.355851 
 15            40            1.996832      4.091807      6.179773 
 20            40            1.611064      3.955737      5.950083 
 25            40            1.157172      3.765429      5.664568 
 30            40            .6452024      3.511157      5.320756 
 35            40            9.369835E-02  3.18067       4.91621 
 40            40           -.4672054      2.758689      4.448954 
 45            40           -.9944769      2.226034      3.918035 
 50            40           -1.436204      1.558066      3.324364 
 55            40           -1.744106      .7219767      2.67201 
 60            40           -1.892075     -.3282422      1.970191 
 65            40           -1.889508     -1.661548      1.236306 
 70            40           -1.778418     -3.390772      .5001415 
 75            40           -1.616545     -5.724395     -.1915454 
 80            40           -1.459122     -9.126854     -.7731934 
 85            40           -1.348005     -15.07531     -1.167691 
 90            40           -1.308227     -134.3649     -1.308227 
 0             45            3.54298       3.54298       6.553318 
 5             45            3.389696      3.533751      6.472658 
 10            45            3.160321      3.484949      6.336006 
 15            45            2.854069      3.393433      6.142457 
 20            45            2.471368      3.253981      5.890617 
 25            45            2.015105      3.059267      5.57883 
 30            45            1.49258       2.799722      5.205482 
 35            45            .9181503      2.463257      4.769395 
 40            45            .3163975      2.034797      4.270376 
 45            45           -.2755079      1.495368      3.70991 
 50            45           -.8089752      .8205579      3.092112 
 55            45           -1.2324       -2.222944E-02  2.425039 
 60            45           -1.507588     -1.07878       1.722444 
 65            45           -1.626749     -2.417839      1.006032 
 70            45           -1.617454     -4.152058      .3079175 
 75            45           -1.530935     -6.489744     -.3276621 
 80            45           -1.423023     -9.895211     -.8457285 
 85            45           -1.339306     -15.84551     -1.188088 
 90            45           -1.308227     -134.3453     -1.308227 
 0             50            4.238369      2.71462       6.553318 
 5             50            4.094546      2.70558       6.465693 
 10            50            3.872523      2.655693      6.316924 
 15            50            3.571293      2.561858      6.106175 
 20            50            3.190739      2.418952      5.832305 
 25            50            2.732678      2.219763      5.494127 
 30            50            2.202552      1.954864      5.090812 
 35            50            1.611814      1.612355      4.622422 
 40            50            .9809104      1.177341      4.090574 
 45            50            .3421478      .6310635      3.499346 
 50            50           -.2597835     -5.066523E-02  2.856372 
 55            50           -.7731173     -.9002207      2.174134 
 60            50           -1.152554     -1.963168      1.471362 
 65            50           -1.377124     -3.308045      .7741933 
 70            50           -1.460663     -5.047313      .1165359 
 75            50           -1.445897     -7.389111     -.4611817 
 80            50           -1.386678     -10.79761     -.9157548 
 85            50           -1.330479     -16.74977     -1.207532 
 90            50           -1.308227     -137.8281     -1.308227 
 0             55            4.820587      1.725082      6.553318 
 5             55            4.68413       1.71617       6.459237 
 10            55            4.467652      1.66517       6.298983 
 15            55            4.170035      1.569035      6.071747 
 20            55            3.790818      1.422723      5.776553 
 25            55            3.33111       1.219136      5.412596 
 30            55            2.795091      .9489963      4.979742 
 35            55            2.192135      .6005609      4.479189 
 40            55            1.53966       .1591326      3.914359 
 45            55            .8661089     -.3938401      3.292004 
 50            55            .2124832     -1.082336      2.623488 
 55            55           -.3707414     -1.938513      1.926073 
 60            55           -.8344562     -3.007715      1.223796 
 65            55           -1.148134     -4.358284      .5472132 
 70            55           -1.313687     -6.102491     -6.865967E-02 
 75            55           -1.36478      -8.448313     -.5884415 
 80            55           -1.351575     -11.85978     -.9814533 
 85            55           -1.321892     -17.81378     -1.225554 
 90            55           -1.308227     -132.7758     -1.308227 
 0             60            5.303915      .5326417      6.553318 
 5             60            5.173199      .5238045      6.453394 
 10            60            4.960895      .4717215      6.282559 
 15            60            4.665823      .3733877      6.039975 
 20            60            4.287307      .22384        5.724766 
 25            60            3.825981      1.608543E-02  5.336403 
 30            60            3.285154     -.259019       4.875332 
 35            60            2.672732     -.6130535      4.343779 
 40            60            2.003887     -1.060543      3.746866 
 45            60            1.304069     -1.619845      3.094003 
 50            60            .6111033     -2.314739      2.400387 
 55            60           -2.634606E-02 -3.177172      1.688262 
 60            60           -.5573821     -4.252295      .9871331 
 65            60           -.9448014     -5.60825       .3318099 
 70            60           -1.180761     -7.357128     -.2423431 
 75            60           -1.290288     -9.706757     -.7060187 
 80            60           -1.318983     -13.12105     -1.041244 
 85            60           -1.313865     -19.07676     -1.241769 
 90            60           -1.308227     -141.9983     -1.308227 
 0             65            5.698821     -.927812       6.553318 
 5             65            5.572557     -.936609       6.448269 
 10            65            5.363362     -.9897034      6.267999 
 15            65            5.070031     -1.090056      6.011617 
 20            65            4.69176      -1.242558      5.678282 
 25            65            4.22887      -1.454107      5.267655 
 30            65            3.684052     -1.733729      4.780625 
 35            65            3.064172     -2.092857      4.220301 
 40            65            2.382757     -2.545855      3.593357 
 45            65            1.662973     -3.110914      2.911722 
 50            65            .9400584     -3.811628      2.194367 
 55            65            .2608225     -4.679752      1.468515 
 60            65           -.3232052     -5.760258      .7690746 
 65            65           -.7702838     -7.12111       .1347758 
 70            65           -1.064925     -8.874243     -.3993957 
 75            65           -1.224522     -11.22734     -.8108347 
 80            65           -1.289933     -14.64419     -1.093805 
 85            65           -1.306671     -20.60148     -1.255879 
 90            65           -1.308227     -152.6426     -1.308227 
 0             70            6.013027     -2.765767      6.553318 
 5             70            5.890154     -2.774549      6.443946 
 10            70            5.683233     -2.828534      6.255621 
 15            70            5.391063     -2.930646      5.987375 
 20            70            5.012746     -3.085722      5.638347 
 25            70            4.548408     -3.300567      5.208324 
 30            70            4.000316     -3.584107      4.698515 
 35            70            3.37459      -3.947657      4.11274 
 40            70            2.683573     -4.405436      3.459015 
 45            70            1.948728     -4.975488      2.751548 
 50            70            1.203272     -5.681246      2.012817 
 55            70            .4923534     -6.554313      1.274748 
 60            70           -.1324505     -7.63949       .5773292 
 65            70           -.6264061     -9.004596     -3.730009E-02 
 70            70           -.9682506     -10.76142     -.5350917 
 75            70           -1.169044     -13.11753     -.9002331 
 80            70           -1.265225     -16.53661     -1.138081 
 85            70           -1.300523     -22.49527     -1.267661 
 90            70           -1.308227     -141.6079     -1.308227 
 0             75            6.25219      -5.186905      6.553318 
 5             75            6.131807     -5.195688      6.440501 
 10            75            5.926497     -5.250407      6.245692 
 15            75            5.635062     -5.353962      5.967841 
 20            75            5.256566     -5.511129      5.606062 
 25            75            4.79098      -5.728665      5.160169 
 30            75            4.240308     -6.015396      4.631618 
 35            75            3.610148     -6.382543      4.024757 
 40            75            2.912002     -6.844219      3.348682 
 45            75            2.16612      -7.418336      2.619528 
 50            75            1.404204     -8.128205      1.8628 
 55            75            .6700721     -9.005294      1.114552 
 60            75            1.508051E-02 -10.09428      .4191952 
 65            75           -.5141106     -11.46285     -.1783472 
 70            75           -.8920795     -13.22269     -.6452787 
 75            75           -1.124957     -15.58125     -.9720216 
 80            75           -1.245466     -19.00214     -1.173268 
 85            75           -1.295585     -24.96192     -1.276954 
 90            75           -1.308227     -154.5114     -1.308227 
 0             80            6.420347     -8.653467      6.553319 
 5             80            6.30167      -8.662253      6.437998 
 10            80            6.09743      -8.717524      6.238437 
 15            80            5.806435     -8.822144      5.953522 
 20            80            5.42772      -8.980865      5.582316 
 25            80            4.961186     -9.200383      5.124661 
 30            80            4.408637     -9.489475      4.582134 
 35            80            3.77535      -9.859281      3.959472 
 40            80            3.07227      -10.32383      3.266558 
 45            80            2.318821     -10.90096      2.520975 
 50            80            1.545666     -11.61386      1.750579 
 55            80            .7956625     -12.49393      .9946653 
 60            80            .1198924     -13.58573      .3010906 
 65            80           -.4338093     -14.95686     -.2831664 
 70            80           -.8372305     -16.71893     -.7265441 
 75            80           -1.093013     -19.0793      -1.024503 
 80            80           -1.231077     -22.50154     -1.198781 
 85            80           -1.291979     -28.46213     -1.283654 
 90            80           -1.308227     -158.5709     -1.308227 
 0             85            6.520202     -14.64103      6.553318 
 5             85            6.402521     -14.64982      6.436475 
 10            85            6.198889     -14.70543      6.234015 
 15            85            5.908127     -14.8107       5.944779 
 20            85            5.529249     -14.97038      5.567791 
 25            85            5.062111     -15.19112      5.102891 
 30            85            4.508428     -15.48165      4.551743 
 35            85            3.873277     -15.85309      3.919289 
 40            85            3.167288     -16.31941      3.215896 
 45            85            2.409414     -16.89837      2.460055 
 50            85            1.629713     -17.61314      1.681112 
 55            85            .870454      -18.49503      .9204302 
 60            85            .1825212     -19.58856      .2280647 
 65            85           -.3856238     -20.96127     -.3477486 
 70            85           -.8041699     -22.7247      -.7763489 
 75            85           -1.073677     -25.08619     -1.05647 
 80            85           -1.22234      -28.50925     -1.214235 
 85            85           -1.289786     -34.47036     -1.287698 
 90            85           -1.308227     -158.9793     -1.308227 
 0             90            6.553318     -135.8898      6.553318 
 5             90            6.435964     -135.8986      6.435964 
 10            90            6.23253      -135.9543      6.23253 
 15            90            5.941837     -136.0598      5.941837 
 20            90            5.562902     -136.2198      5.562902 
 25            90            5.095561     -136.441       5.095561 
 30            90            4.541494     -136.732       4.541494 
 35            90            3.905722     -137.1039      3.905722 
 40            90            3.198773     -137.5709      3.198773 
 45            90            2.439441     -138.1505      2.439441 
 50            90            1.657589     -138.8659      1.657589 
 55            90            .8952904     -139.7484      .8952904 
 60            90            .203353      -140.8425      .203353 
 65            90           -.3695642     -142.2157     -.3695642 
 70            90           -.7931259     -143.9796     -.7931259 
 75            90           -1.067204     -146.3415     -1.067204 
 80            90           -1.219411     -149.7648     -1.219411 
 85            90           -1.289048     -155.7261     -1.289048 
 90            90           -1.308227     -271.3051     -1.308227 
 0             95            6.520202     -14.64103      6.553318 
 5             95            6.402521     -14.64982      6.436475 
 10            95            6.198889     -14.70543      6.234015 
 15            95            5.908127     -14.8107       5.944779 
 20            95            5.529249     -14.97038      5.567791 
 25            95            5.062111     -15.19112      5.102891 
 30            95            4.508428     -15.48166      4.551743 
 35            95            3.873277     -15.85309      3.919289 
 40            95            3.167288     -16.31941      3.215896 
 45            95            2.409414     -16.89838      2.460055 
 50            95            1.629713     -17.61314      1.681112 
 55            95            .870454      -18.49503      .9204302 
 60            95            .1825212     -19.58856      .2280647 
 65            95           -.3856238     -20.96127     -.3477486 
 70            95           -.8041699     -22.7247      -.7763489 
 75            95           -1.073677     -25.0862      -1.05647 
 80            95           -1.22234      -28.50926     -1.214235 
 85            95           -1.289786     -34.47036     -1.287698 
 90            95           -1.308227     -158.9793     -1.308227 
 0             100           6.420347     -8.653468      6.553319 
 5             100           6.30167      -8.662256      6.437998 
 10            100           6.09743      -8.717525      6.238437 
 15            100           5.806435     -8.822145      5.953522 
 20            100           5.42772      -8.980867      5.582316 
 25            100           4.961186     -9.200385      5.124661 
 30            100           4.408637     -9.489477      4.582134 
 35            100           3.77535      -9.859282      3.959471 
 40            100           3.07227      -10.32383      3.266558 
 45            100           2.318821     -10.90096      2.520975 
 50            100           1.545666     -11.61386      1.750579 
 55            100           .7956625     -12.49393      .9946653 
 60            100           .1198924     -13.58573      .3010906 
 65            100          -.4338093     -14.95686     -.2831664 
 70            100          -.8372305     -16.71893     -.7265441 
 75            100          -1.093013     -19.0793      -1.024503 
 80            100          -1.231077     -22.50154     -1.198781 
 85            100          -1.291979     -28.46213     -1.283654 
 90            100          -1.308227     -158.5709     -1.308227 
 0             105           6.25219      -5.186907      6.553318 
 5             105           6.131807     -5.195689      6.440501 
 10            105           5.926497     -5.25041       6.245692 
 15            105           5.635062     -5.353964      5.96784 
 20            105           5.256566     -5.511131      5.606062 
 25            105           4.79098      -5.728667      5.160169 
 30            105           4.240308     -6.015398      4.631617 
 35            105           3.610148     -6.382544      4.024757 
 40            105           2.912002     -6.844221      3.348682 
 45            105           2.16612      -7.418338      2.619528 
 50            105           1.404204     -8.128206      1.8628 
 55            105           .6700721     -9.005296      1.114552 
 60            105           1.508051E-02 -10.09428      .4191947 
 65            105          -.5141106     -11.46286     -.1783474 
 70            105          -.8920795     -13.22269     -.6452791 
 75            105          -1.124957     -15.58125     -.9720216 
 80            105          -1.245466     -19.00214     -1.173268 
 85            105          -1.295585     -24.96192     -1.276954 
 90            105          -1.308227     -154.5114     -1.308227 
 0             110           6.013027     -2.765767      6.553318 
 5             110           5.890154     -2.774549      6.443946 
 10            110           5.683233     -2.828534      6.255621 
 15            110           5.391063     -2.930646      5.987375 
 20            110           5.012746     -3.085722      5.638347 
 25            110           4.548408     -3.300567      5.208324 
 30            110           4.000316     -3.584107      4.698515 
 35            110           3.37459      -3.947657      4.11274 
 40            110           2.683573     -4.405436      3.459015 
 45            110           1.948728     -4.975488      2.751548 
 50            110           1.203272     -5.681246      2.012817 
 55            110           .4923534     -6.554313      1.274748 
 60            110          -.1324505     -7.63949       .5773292 
 65            110          -.6264061     -9.004596     -3.730009E-02 
 70            110          -.9682506     -10.76142     -.5350917 
 75            110          -1.169044     -13.11753     -.9002331 
 80            110          -1.265225     -16.53661     -1.138081 
 85            110          -1.300523     -22.49527     -1.267661 
 90            110          -1.308227     -141.6079     -1.308227 
 0             115           5.698821     -.9278094      6.553318 
 5             115           5.572557     -.9366065      6.448269 
 10            115           5.363362     -.9897006      6.268 
 15            115           5.070031     -1.090053      6.011618 
 20            115           4.69176      -1.242555      5.678283 
 25            115           4.22887      -1.454103      5.267656 
 30            115           3.684052     -1.733728      4.780626 
 35            115           3.064172     -2.092855      4.220301 
 40            115           2.382757     -2.545853      3.593357 
 45            115           1.662973     -3.110913      2.911723 
 50            115           .9400584     -3.811625      2.194367 
 55            115           .2608225     -4.67975       1.468515 
 60            115          -.3232052     -5.760255      .7690755 
 65            115          -.7702838     -7.121107      .1347763 
 70            115          -1.064925     -8.874241     -.3993954 
 75            115          -1.224522     -11.22734     -.8108343 
 80            115          -1.289933     -14.64419     -1.093805 
 85            115          -1.306671     -20.60148     -1.255879 
 90            115          -1.308227     -152.6426     -1.308227 
 0             120           5.303915      .5326431      6.553318 
 5             120           5.173199      .5238059      6.453394 
 10            120           4.960895      .4717219      6.282559 
 15            120           4.665823      .3733887      6.039976 
 20            120           4.287307      .2238405      5.724766 
 25            120           3.825981      1.608543E-02  5.336403 
 30            120           3.285154     -.2590182      4.875332 
 35            120           2.672732     -.6130526      4.343779 
 40            120           2.003887     -1.060542      3.746866 
 45            120           1.304069     -1.619844      3.094003 
 50            120           .6111033     -2.314738      2.400387 
 55            120          -2.634606E-02 -3.177171      1.688263 
 60            120          -.5573821     -4.252293      .9871337 
 65            120          -.9448014     -5.608249      .3318104 
 70            120          -1.180761     -7.357127     -.2423431 
 75            120          -1.290288     -9.706755     -.7060184 
 80            120          -1.318983     -13.12104     -1.041244 
 85            120          -1.313865     -19.07676     -1.241769 
 90            120          -1.308227     -141.9983     -1.308227 
 0             125           4.820587      1.725084      6.553318 
 5             125           4.68413       1.716172      6.459238 
 10            125           4.467652      1.665172      6.298984 
 15            125           4.170035      1.569036      6.071747 
 20            125           3.790818      1.422725      5.776554 
 25            125           3.33111       1.219138      5.412596 
 30            125           2.795091      .9489984      4.979743 
 35            125           2.192135      .6005628      4.47919 
 40            125           1.53966       .1591351      3.91436 
 45            125           .8661089     -.3938382      3.292004 
 50            125           .2124832     -1.082334      2.623489 
 55            125          -.3707414     -1.938511      1.926074 
 60            125          -.8344562     -3.007713      1.223797 
 65            125          -1.148134     -4.358283      .5472132 
 70            125          -1.313687     -6.102489     -6.865913E-02 
 75            125          -1.36478      -8.448311     -.5884412 
 80            125          -1.351575     -11.85978     -.9814533 
 85            125          -1.321892     -17.81378     -1.225554 
 90            125          -1.308227     -132.7758     -1.308227 
 0             130           4.238369      2.71462       6.553318 
 5             130           4.094546      2.70558       6.465693 
 10            130           3.872523      2.655693      6.316924 
 15            130           3.571293      2.561858      6.106175 
 20            130           3.190739      2.418952      5.832305 
 25            130           2.732678      2.219763      5.494127 
 30            130           2.202552      1.954864      5.090812 
 35            130           1.611814      1.612355      4.622422 
 40            130           .9809104      1.177341      4.090574 
 45            130           .3421478      .6310635      3.499346 
 50            130          -.2597835     -5.066523E-02  2.856372 
 55            130          -.7731173     -.9002207      2.174134 
 60            130          -1.152554     -1.963168      1.471362 
 65            130          -1.377124     -3.308045      .7741933 
 70            130          -1.460663     -5.047313      .1165359 
 75            130          -1.445897     -7.389111     -.4611817 
 80            130          -1.386678     -10.79761     -.9157548 
 85            130          -1.330479     -16.74977     -1.207532 
 90            130          -1.308227     -137.8281     -1.308227 
 0             135           3.54298       3.54298       6.553318 
 5             135           3.389696      3.533751      6.472658 
 10            135           3.160321      3.484949      6.336006 
 15            135           2.854069      3.393433      6.142457 
 20            135           2.471368      3.253981      5.890617 
 25            135           2.015105      3.059267      5.57883 
 30            135           1.49258       2.799722      5.205482 
 35            135           .9181503      2.463257      4.769395 
 40            135           .3163975      2.034797      4.270376 
 45            135          -.2755079      1.495368      3.70991 
 50            135          -.8089752      .8205579      3.092112 
 55            135          -1.2324       -2.222944E-02  2.425039 
 60            135          -1.507588     -1.07878       1.722444 
 65            135          -1.626749     -2.417839      1.006032 
 70            135          -1.617454     -4.152058      .3079175 
 75            135          -1.530935     -6.489744     -.3276621 
 80            135          -1.423023     -9.895211     -.8457285 
 85            135          -1.339306     -15.84551     -1.188088 
 90            135          -1.308227     -134.3453     -1.308227 
 0             140           2.71462       4.238369      6.553318 
 5             140           2.549067      4.228874      6.480023 
 10            140           2.309937      4.181087      6.355851 
 15            140           1.996832      4.091807      6.179773 
 20            140           1.611064      3.955737      5.950083 
 25            140           1.157172      3.765429      5.664568 
 30            140           .6452024      3.511157      5.320756 
 35            140           9.369835E-02  3.18067       4.91621 
 40            140          -.4672054      2.758689      4.448954 
 45            140          -.9944769      2.226034      3.918035 
 50            140          -1.436204      1.558066      3.324364 
 55            140          -1.744106      .7219767      2.67201 
 60            140          -1.892075     -.3282422      1.970191 
 65            140          -1.889508     -1.661548      1.236306 
 70            140          -1.778418     -3.390772      .5001415 
 75            140          -1.616545     -5.724395     -.1915454 
 80            140          -1.459122     -9.126854     -.7731934 
 85            140          -1.348005     -15.07531     -1.167691 
 90            140          -1.308227     -134.3649     -1.308227 
 0             145           1.725084      4.820587      6.553318 
 5             145           1.543351      4.81074       6.487671 
 10            145           1.291187      4.763837      6.376069 
 15            145           .9688899      4.676633      6.217313 
 20            145           .5792343      4.543747      6.009319 
 25            145           .1293754      4.357616      5.749275 
 30            145          -.3664387      4.10837       5.433809 
 35            145          -.8836286      3.783587      5.059239 
 40            145          -1.384707      3.367798      4.621901 
 45            145          -1.820293      2.841621      4.118623 
 50            145          -2.137671      2.180211      3.547476 
 55            145          -2.297885      1.350534      2.909016 
 60            145          -2.293675      .3063762      2.208424 
 65            145          -2.154886     -1.021419      1.459058 
 70            145          -1.936442     -2.745862      .6880161 
 75            145          -1.698796     -5.07559      -5.661051E-02 
 80            145          -1.493294     -8.475175     -.7001522 
 85            145          -1.356169     -14.42186     -1.146888 
 90            145          -1.308227     -132.0163     -1.308227 
 0             150           .5326431      5.303915      6.553318 
 5             150           .3290107      5.293616      6.495487 
 10            150           5.921578E-02  5.24742       6.396282 
 15            150          -.2751577      5.162045      6.254292 
 20            150          -.668805       5.032029      6.067021 
 25            150          -1.110257      4.849697      5.831023 
 30            150          -1.578675      4.605056      5.542043 
 35            150          -2.040724      4.285517      5.195212 
 40            150          -2.449808      3.875432      4.785316 
 45            150          -2.751734      3.355231      4.307222 
 50            150          -2.899684      2.699868      3.756536 
 55            150          -2.874026      1.876114      3.13081 
 60            150          -2.693653      .837556       2.431713 
 65            150          -2.409049     -.4851438      1.668915 
 70            150          -2.083052     -2.205167      .8666577 
 75            150          -1.773308     -4.531296      7.338285E-02 
 80            150          -1.523749     -7.928221     -.6287307 
 85            150          -1.363377     -13.87328     -1.126291 
 90            150          -1.308227     -133.8575     -1.308227 
 0             155          -.9278103      5.698821      6.553318 
 5             155          -1.162257      5.687954      6.503353 
 10            155          -1.456332      5.642251      6.416129 
 15            155          -1.805942      5.558376      6.289978 
 20            155          -2.201127      5.430806      6.121984 
 25            155          -2.622904      5.251772      5.908074 
 30            155          -3.03983       5.011147      5.643151 
 35            155          -3.406374      4.696208      5.321258 
 40            155          -3.667114      4.29115       4.935827 
 45            155          -3.770628      3.776225      4.480026 
 50            155          -3.690339      3.126214      3.947393 
 55            155          -3.439239      2.307701      3.332958 
 60            155          -3.065868      1.27411       2.635418 
 65            155          -2.635125     -4.407479E-02  1.861168 
 70            155          -2.208833     -1.760181      1.031622 
 75            155          -1.835508     -4.083116      .1948308 
 80            155          -1.548683     -7.477684     -.5610797 
 85            155          -1.369209     -13.4213      -1.106547 
 90            155          -1.308227     -136.0625     -1.308227 
 0             160          -2.765763      6.013027      6.553318 
 5             160          -3.0461        6.001477      6.511172 
 10            160          -3.374347      5.956001      6.435274 
 15            160          -3.740939      5.873232      6.323704 
 20            160          -4.126513      5.747588      6.173129 
 25            160          -4.498215      5.571216      5.978893 
 30            160          -4.807849      5.333884      5.735132 
 35            160          -4.996479      5.022749      5.434948 
 40            160          -5.00988       4.621866      5.070609 
 45            160          -4.821535      4.111344      4.633889 
 50            160          -4.44809       3.46581       4.116633 
 55            160          -3.943536      2.651696      3.511818 
 60            160          -3.37745       1.622267      2.815676 
 65            160          -2.814417      .3078822      2.031817 
 70            160          -2.304209     -1.404926      1.179005 
 75            160          -1.880979     -3.725176      .3044233 
 80            160          -1.566407     -7.117758     -.4992842 
 85            160          -1.373281     -13.06015     -1.088316 
 90            160          -1.308227     -137.8029     -1.308227 
 0             165          -5.186903      6.252189      6.553317 
 5             165          -5.541835      6.239835      6.518841 
 10            165          -5.918436      6.194291      6.453418 
 15            165          -6.29304       6.112172      6.354885 
 20            165          -6.624931      5.987849      6.219532 
 25            165          -6.855581      5.813402      6.042182 
 30            165          -6.917743      5.578517      5.816329 
 35            165          -6.758449      5.270251      5.534288 
 40            165          -6.366168      4.872553      5.187397 
 45            165          -5.780223      4.365412      4.766316 
 50            165          -5.073128      3.723332      4.26156 
 55            165          -4.322546      2.912624      3.664501 
 60            165          -3.592605      1.886433      2.969412 
 65            165          -2.928783      .5750017      2.177603 
 70            165          -2.360538     -1.135236      1.305521 
 75            165          -1.905901     -3.453393      .3992543 
 80            165          -1.575492     -6.844421     -.4452597 
 85            165          -1.375269     -12.78586     -1.072226 
 90            165          -1.308227     -133.1807     -1.308227 
 0             170          -8.653463      6.420347      6.553319 
 5             170          -9.148273      6.40706       6.526268 
 10            170          -9.581299      6.361133      6.470302 
 15            170          -9.881978      6.279165      6.383036 
 20            170          -9.960552      6.155494      6.260434 
 25            170          -9.740622      5.982147      6.096905 
 30            170          -9.20392       5.748766      5.88544 
 35            170          -8.40694       5.442328      5.617748 
 40            170          -7.450591      5.046708      5.284465 
 45            170          -6.435823      4.541805      4.875427 
 50            170          -5.439299      3.902042      4.380168 
 55            170          -4.510848      3.09363       3.788858 
 60            170          -3.680122      2.069642      3.094305 
 65            170          -2.963885      .7602281      2.296025 
 70            170          -2.371357     -.9482502      1.408566 
 75            170          -1.907487     -3.264964      .4769358 
 80            170          -1.574903     -6.654925     -.4006542 
 85            170          -1.374942     -12.59571     -1.05884 
 90            170          -1.308227     -131.0256     -1.308227 
 0             175          -14.64102      6.520202      6.553318 
 5             175          -15.4635       6.505858      6.533369 
 10            175          -15.67463      6.459216      6.485708 
 15            175          -15.08693      6.376864      6.407758 
 20            175          -13.85864      6.253126      6.29525 
 25            175          -12.32338      6.080009      6.14229 
 30            175          -10.73384      5.847115      5.941518 
 35            175          -9.216232      5.541389      5.68424 
 40            175          -7.820561      5.146652      5.360617 
 45            175          -6.562643      4.642762      4.959944 
 50            175          -5.445045      4.004086      4.471099 
 55            175          -4.465949      3.196787      3.883446 
 60            175          -3.622586      2.173884      3.188773 
 65            175          -2.912415      .8654778      2.385325 
 70            175          -2.333472     -.8421065      1.486253 
 75            175          -1.884347     -3.158086      .5356514 
 80            175          -1.56411      -6.547499     -.3667725 
 85            175          -1.372172     -12.48795     -1.048617 
 90            175          -1.308227     -131.7019     -1.308227 
 0             180          -129.8691      6.553318      6.553318 
 5             180          -26.24732      6.537798      6.540084 
 10            180          -20.16419      6.490095      6.49947 
 15            180          -16.5428       6.406813      6.428779 
 20            180          -13.9139       6.282269      6.323586 
 25            180          -11.82348      6.108469      6.177834 
 30            180          -10.07543      5.875013      5.983982 
 35            180          -8.570714      5.568828      5.733118 
 40            180          -7.25491       5.17374       5.415182 
 45            180          -6.096861      4.669585      5.019177 
 50            180          -5.078393      4.030717      4.53364 
 55            180          -4.188954      3.223297      3.947501 
 60            180          -3.422562      2.200314      3.251955 
 65            180          -2.775969      .8918682      2.444504 
 70            180          -2.247572     -.8157298      1.53743 
 75            180          -1.83669      -3.131709      .5742303 
 80            180          -1.543146     -6.521117     -.3445022 
 85            180          -1.366965     -12.46155     -1.041885 
 90            180          -1.308227     -133.8297     -1.308227 
 0             185          -14.64105      6.520202      6.553318 
 5             185          -13.52233      6.50339       6.546353 
 10            185          -12.3227       6.454297      6.511478 
 15            185          -11.13971      6.369537      6.445932 
 20            185          -10.00647      6.243439      6.345234 
 25            185          -8.930241      6.068042      6.203312 
 30            185          -7.910917      5.832958      6.012598 
 35            185          -6.948164      5.525147      5.764185 
 40            185          -6.043636      5.12845       5.447986 
 45            185          -5.201117      4.622741      5.052996 
 50            185          -4.425898      3.982392      4.567691 
 55            185          -3.724034      3.173591      3.98091 
 60            185          -3.101696      2.149358      3.283692 
 65            185          -2.564679      .8398111      2.473296 
 70            185          -2.118123     -.8687196      1.561691 
 75            185          -1.766315     -3.185441      .5921686 
 80            185          -1.512622     -6.57539      -.3342787 
 85            185          -1.359445     -12.51616     -1.038816 
 90            185          -1.308227     -134.1115     -1.308227 
 0             190          -8.653467      6.420347      6.553319 
 5             190          -8.139922      6.402144      6.55214 
 10            190          -7.628268      6.351335      6.52167 
 15            190          -7.124646      6.264565      6.459154 
 20            190          -6.627354      6.136194      6.360171 
 25            190          -6.131546      5.958303      6.218758 
 30            190          -5.632568      5.720551      6.027492 
 35            190          -5.12811       5.409961      5.777651 
 40            190          -4.619477      5.01043       5.459353 
 45            190          -4.111917      4.501895      5.061812 
 50            190          -3.614123      3.858801      4.573741 
 55            190          -3.137193      3.04739       3.984212 
 60            190          -2.69336       2.020749      3.284514 
 65            190          -2.294782      .709055       2.472158 
 70            190          -1.952618     -1.001309      1.55937 
 75            190          -1.676392     -3.319507      .5896359 
 80            190          -1.473665     -6.710534     -.3360653 
 85            190          -1.349857     -12.65196     -1.039416 
 90            190          -1.308227     -131.7476     -1.308227 
 0             195          -5.186905      6.25219       6.553318 
 5             195          -4.864537      6.232509      6.557411 
 10            195          -4.577056      6.179693      6.530036 
 15            195          -4.321242      6.09041       6.468501 
 20            195          -4.090369      5.959086      6.368556 
 25            195          -3.875631      5.777855      6.224468 
 30            195          -3.667379      5.536453      6.02912 
 35            195          -3.456403      5.221989      5.774145 
 40            195          -3.235363      4.818458      5.450076 
 45            195          -3.000171      4.305893      5.046576 
 50            195          -2.750988      3.658836      4.552858 
 55            195          -2.49252       2.843642      3.958561 
 60            195          -2.233462      1.813491      3.25561 
 65            195          -1.985229      .4986533      2.442257 
 70            195          -1.76039      -1.214408      1.531513 
 75            195          -1.571086     -3.534782      .5674577 
 80            195          -1.427813     -6.927408     -.3493625 
 85            195          -1.338541     -12.86981     -1.043527 
 90            195          -1.308227     -133.5122     -1.308227 
 0             200          -2.765765      6.013027      6.553318 
 5             200          -2.536447      5.991796      6.562153 
 10            200          -2.357088      5.936703      6.536607 
 15            200          -2.22382       5.844469      6.474132 
 20            200          -2.130677      5.70957       6.370718 
 25            200          -2.06992       5.524225      6.220983 
 30            200          -2.032278      5.278272      6.018253 
 35            200          -2.007335      4.958934      5.754685 
 40            200          -1.984282      4.550327      5.421403 
 45            200          -1.953107      4.032618      5.008744 
 50            200          -1.906103      3.38049       4.506681 
 55            200          -1.839351      2.560429      3.905727 
 60            200          -1.75367       1.525749      3.198829 
 65            200          -1.654593      .206843       2.385437 
 70            200          -1.551353     -1.509715      1.479854 
 75            200          -1.455091     -3.832913      .5270779 
 80            200          -1.376877     -7.227616     -.3732414 
 85            200          -1.325912     -13.17129     -1.050843 
 90            200          -1.308227     -133.2495     -1.308227 
 0             205          -.927812       5.698821      6.553318 
 5             205          -.7534797      5.675988      6.566363 
 10            205          -.6375124      5.618405      6.541476 
 15            205          -.5766312      5.52283       6.476299 
 20            205          -.5662475      5.383817      6.367144 
 25            205          -.6003788      5.193687      6.209077 
 30            205          -.6714498      4.942393      5.995978 
 35            205          -.7701085      4.617298      5.720668 
 40            205          -.8853281      4.202672      5.375032 
 45            205          -1.004936      3.678842      4.950284 
 50            205          -1.116757      3.020656      4.437405 
 55            205          -1.21027       2.194764      3.828078 
 60            205          -1.278429      1.15465       3.116651 
 65            205          -1.319018     -.1691467      2.304201 
 70            205          -1.334939     -1.889912      1.406771 
 75            205          -1.333182     -4.216512      .4705031 
 80            205          -1.322789     -7.613716     -.406398 
 85            205          -1.31242      -13.55892     -1.06093 
 90            205          -1.308227     -135.9816     -1.308227 
 0             210           .5326417      5.303915      6.553318 
 5             210           .6706693      5.279455      6.570054 
 10            210           .7448721      5.219207      6.54477 
 15            210           .7578559      5.119982      6.475342 
 20            210           .7130283      4.976419      6.358468 
 25            210           .6148424      4.780947      6.189729 
 30            210           .4691811      4.523663      5.963656 
 35            210           .2838177      4.19208       5.673837 
 40            210           6.875973E-02  3.770645      5.313075 
 45            210          -.1637193      3.239869      4.873636 
 50            210          -.3995901      2.574795      4.347747 
 55            210          -.6243167      1.74227       3.728559 
 60            210          -.82476        .6959546      3.012159 
 65            210          -.9912955     -.6334238      2.201663 
 70            210          -1.119392     -2.358996      1.315221 
 75            210          -1.209843     -4.689489      .4002214 
 80            210          -1.267446     -8.08956      -.4472243 
 85            210          -1.298522     -14.03652     -1.073257 
 90            210          -1.308227     -131.6615     -1.308227 
 0             215           1.725082      4.820587      6.553318 
 5             215           1.837372      4.794499      6.573243 
 10            215           1.881861      4.731469      6.546644 
 15            215           1.860589      4.62837       6.471671 
 20            215           1.776066      4.479934      6.345448 
 25            215           1.631551      4.278705      6.164106 
 30            215           1.431534      4.014934      5.922895 
 35            215           1.1823        3.676302      5.616257 
 40            215           .8925385      3.247453      5.23803 
 45            215           .5737517      2.7091        4.7817 
 50            215           .2403142      2.036497      4.240947 
 55            215          -9.118372E-02  1.196704      3.610664 
 60            215          -.4034587      .1435923      2.889012 
 65            215          -.680787      -1.191917      2.081501 
 70            215          -.9113998     -2.922768      1.208668 
 75            215          -1.088998     -5.257542      .3191091 
 80            215          -1.212605     -8.660763     -.4938959 
 85            215          -1.284654     -14.60965     -1.08723 
 90            215          -1.308227     -131.4348     -1.308227 
 0             220           2.714618      4.238369      6.553318 
 5             220           2.807761      4.210674      6.575959 
 10            220           2.829961      4.144811      6.547295 
 15            220           2.782813      4.037709      6.465768 
 20            220           2.668152      3.884196      6.328936 
 25            220           2.488353      3.676948      6.133524 
 30            220           2.246819      3.406371      5.875518 
 35            220           1.948599      3.060325      5.550276 
 40            220           1.60112       2.623655      5.152749 
 45            220           1.214857      2.077296      4.677788 
 50            220           .8037979      1.396728      4.120712 
 55            220           .3853441      .5492375      3.478402 
 60            220          -2.063788E-02 -.5110789      2.751399 
 65            220          -.3938016     -1.853092      1.947897 
 70            220          -.7160185     -3.589553      1.090998 
 75            220          -.9738686     -5.928879      .2303239 
 80            220          -1.159787     -9.335447     -.5444619 
 85            220          -1.271208     -15.28639     -1.102236 
 90            220          -1.308227     -135.6521     -1.308227 
 0             225           3.54298       3.542982      6.553319 
 5             225           3.621398      3.51373       6.578235 
 10            225           3.626251      3.445044      6.546931 
 15            225           3.558794      3.33391       6.458145 
 20            225           3.420361      3.175255      6.309874 
 25            225           3.212666      2.961884      6.099423 
 30            225           2.938291      2.68436       5.823519 
 35            225           2.601309      2.330737      5.478467 
 40            225           2.20807       1.886063      5.060388 
 45            225           1.768031      1.331497      4.565584 
 50            225           1.294499      .6427504      3.991177 
 55            225           .804996      -.2126511      3.336249 
 60            225           .3208722     -1.280383      2.603966 
 65            225          -.1341895     -2.629093      1.805441 
 70            225          -.5367983     -4.371336      .9663999 
 75            225          -.8669245     -6.715351      .1371887 
 80            225          -1.110235     -10.12538     -.5969367 
 85            225          -1.258511     -16.07844     -1.117662 
 90            225          -1.308227     -136.7624     -1.308227 
 0             230           4.23837       2.714618      6.553318 
 5             230           4.305216      2.683886      6.580113 
 10            230           4.296241      2.612451      6.545779 
 15            230           4.212433      2.497358      6.449352 
 20            230           4.054767      2.333633      6.289247 
 25            230           3.82446       2.114201      6.063317 
 30            230           3.523482      1.829792      5.76902 
 35            230           3.155149      1.468637      5.403588 
 40            230           2.724949      1.015999      4.964333 
 45            230           2.24143       .4532547      4.44907 
 50            230           1.717167     -.2436486      3.856831 
 55            230           1.169452     -1.10695       3.18906 
 60            230           .6204143     -2.182091      2.451737 
 65            230           9.607045E-02 -3.537501      1.659034 
 70            230          -.3759888     -5.28553       .8392577 
 75            230          -.7699197     -7.634241      4.306712E-02 
 80            230          -1.064886     -11.04773     -.6493802 
 85            230          -1.246825     -17.00291     -1.132932 
 90            230          -1.308227     -136.619      -1.308227 
 0             235           4.820588      1.72508       6.553318 
 5             235           4.878227      1.692972      6.581636 
 10            235           4.858074      1.618925      6.54407 
 15            235           4.760926      1.500051      6.439944 
 20            235           4.587472      1.331456      6.268049 
 25            235           4.338583      1.106196      6.026756 
 30            235           4.015766      .8151503      5.714197 
 35            235           3.62177       .4467312      5.328496 
 40            235           3.161387     -1.360902E-02  4.868127 
 45            235           2.642434     -.584261       4.332442 
 50            235           2.07679      -1.289064      3.722423 
 55            235           1.481378     -2.160024      3.041977 
 60            235           .8786905     -3.242354      2.300003 
 65            235           .296343      -4.604267      1.513771 
 70            235          -.2348089     -6.357921      .7140088 
 75            235          -.6839797     -8.711194     -4.875064E-02 
 80            235          -1.024403     -12.12805     -.6999762 
 85            235          -1.236338     -18.08529     -1.147527 
 90            235          -1.308227     -136.191      -1.308227 
 0             240           5.303917      .5326408      6.553319 
 5             240           5.354202      .49928        6.582844 
 10            240           5.324987      .4228275      6.542036 
 15            240           5.216911      .3004432      6.430468 
 20            240           5.030466      .1273181      6.247274 
 25            240           4.766261     -.1033752      5.991281 
 30            240           4.425462     -.4006218      5.661227 
 35            240           4.010394     -.7758376      5.256062 
 40            240           3.525329     -1.243381      4.775373 
 45            240           2.977478     -1.821452      4.219983 
 50            240           2.378137     -2.533665      3.592832 
 55            240           1.743834     -3.411813      2.900286 
 60            240           1.097183     -4.500895      2.154169 
 65            240           .4668862     -5.868925      1.374774 
 70            240          -.1136955     -7.627865      .59501 
 75            240          -.6097124     -9.985435     -.1351583 
 80            240          -.989195      -13.40547     -.7470828 
 85            240          -1.227179     -19.36465     -1.160995 
 90            240          -1.308227     -140.3951     -1.308227 
 0             245           5.698823     -.9278126      6.553318 
 5             245           5.743277     -.9622737      6.583783 
 10            245           5.706762     -1.040875      6.539892 
 15            245           5.589809     -1.166405      6.421443 
 20            245           5.392757     -1.343598      6.227859 
 25            245           5.116032     -1.57918       5.958359 
 30            245           4.760552     -1.882013      5.612207 
 35            245           4.32833      -2.263356      5.189089 
 40            245           3.823243     -2.737403      4.689599 
 45            245           3.252037     -3.322171      4.115944 
 50            245           2.625533     -4.041083      3.472915 
 55            245           1.959895     -4.925734      2.769252 
 60            245           1.277736     -6.020932      2.01958 
 65            245           .6085038     -7.394501      1.247035 
 70            245          -1.255876E-02 -9.158232      .4863813 
 75            245          -.5473321     -11.5197      -.2133221 
 80            245          -.9594722     -14.94261     -.7892736 
 85            245          -1.219419     -20.90355     -1.172959 
 90            245          -1.308227     -138.0409     -1.308227 
 0             250           6.013027     -2.765768      6.553318 
 5             250           6.052941     -2.801161      6.58449 
 10            250           6.010668     -2.881594      6.537837 
 15            250           5.886655     -3.009824      6.413343 
 20            250           5.681138     -3.190511      6.210668 
 25            250           5.394408     -3.430299      5.929352 
 30            250           5.027205     -3.737937      5.569094 
 35            250           4.581317     -4.124562      5.130201 
 40            250           4.060332     -4.60422       4.614143 
 45            250           3.470652     -5.194769      4.024358 
 50            250           2.822724     -5.919468      3.367312 
 55            250           2.13241      -6.809742      2.653906 
 60            250           1.422276     -7.910228      1.901324 
 65            250           .7222662     -9.288589      1.135224 
 70            250           6.902471E-02 -11.05647      .3918828 
 75            250          -.4967909     -13.42131     -.2807638 
 80            250          -.9352922     -16.84671     -.8253512 
 85            250          -1.21309      -22.80918     -1.183118 
 90            250          -1.308227     -143.4419     -1.308227 
 0             255           6.25219      -5.186909      6.553318 
 5             255           6.288697     -5.223048      6.584997 
 10            255           6.242066     -5.304954      6.536047 
 15            255           6.112669     -5.435357      6.406585 
 20            255           5.900678     -5.618869      6.196464 
 25            255           5.60628      -5.862061      5.905454 
 30            255           5.230105     -6.173592      5.533613 
 35            255           4.773775     -6.564499      5.081731 
 40            255           4.240681     -7.048705      4.552001 
 45            255           3.636974     -7.643946      3.948879 
 50            255           2.972825     -8.373339      3.280241 
 55            255           2.263867     -9.268176      2.55883 
 60            255           1.532602     -10.37296      1.804001 
 65            255           .8093056     -11.75522      1.043507 
 70            255           .1316272     -13.52647      .3147774 
 75            255          -.4578831     -15.89406     -.3354064 
 80            255          -.9166241     -19.32148     -.8543636 
 85            255          -1.208191     -25.28519     -1.191236 
 90            255          -1.308227     -143.8189     -1.308227 
 0             260           6.420347     -8.653473      6.553318 
 5             260           6.454488     -8.69015       6.585341 
 10            260           6.404792     -8.773139      6.534662 
 15            260           6.271604     -8.905139      6.401508 
 20            260           6.05503      -9.090729      6.18585 
 25            260           5.755208     -9.336423      5.887644 
 30            260           5.372688     -9.65082       5.507186 
 35            260           4.90899      -10.04488      5.045628 
 40            260           4.367365     -10.53244      4.505688 
 45            260           3.753801     -11.13113      3.892591 
 50            260           3.078282     -11.86399      3.21528 
 55            260           2.356277     -12.7622       2.487909 
 60            260           1.610238     -13.87015      1.731491 
 65            260           .870649      -15.25528      .975355 
 70            260           .1758357     -17.02902      .2577245 
 75            260          -.4303468     -19.39864     -.3756142 
 80            260          -.9033837     -22.82756     -.875586 
 85            260          -1.204713     -28.79219     -1.19715 
 90            260          -1.308227     -150.2442     -1.308227 
 0             265           6.520202     -14.64103      6.553318 
 5             265           6.55295      -14.67804      6.585539 
 10            265           6.501438     -14.76169      6.533788 
 15            265           6.365986     -14.89467      6.398356 
 20            265           6.146683     -15.08152      6.179293 
 25            265           5.843626     -15.32875      5.876657 
 30            265           5.45732      -15.6449       5.490887 
 35            265           4.989229     -16.04088      5.023356 
 40            265           4.44253      -16.5305       4.477107 
 45            265           3.82311      -17.13131      3.857834 
 50            265           3.14085      -17.86629      3.175157 
 55            265           2.411119     -18.76656      2.44411 
 60            265           1.656339     -19.87646      1.686749 
 65            265           .9071089     -21.26335      .9333786 
 70            265           .2021429     -23.03862      .2226882 
 75            265          -.4139379     -25.40948     -.4002108 
 80            265          -.8954848     -28.83931     -.8885171 
 85            265          -1.202635     -34.80451     -1.20074 
 90            265          -1.308227     -152.9261     -1.308227 
 0             270           6.553318     -151.9196      6.553318 
 5             270           6.585602     -151.9567      6.585602 
 10            270           6.533489     -152.0406      6.533489 
 15            270           6.397287     -152.1739      6.397287 
 20            270           6.177077     -152.3612      6.177077 
 25            270           5.872942     -152.6089      5.872942 
 30            270           5.48538      -152.9257      5.48538 
 35            270           5.015828     -153.3223      5.015828 
 40            270           4.467443     -153.8126      4.467443 
 45            270           3.846083     -154.4141      3.846083 
 50            270           3.161588     -155.1498      3.161588 
 55            270           2.4293       -156.0508      2.4293 
 60            270           1.671626     -157.1613      1.671626 
 65            270           .9192036     -158.5488      .9192036 
 70            270           .2108752     -160.3246      .2108752 
 75            270          -.4084887     -162.6959     -.4084887 
 80            270          -.892859      -166.126      -.892859 
 85            270          -1.201944     -172.0914     -1.201944 
 90            270          -1.308227     -297.6789     -1.308227 
 0             275           6.520202     -14.64103      6.553318 
 5             275           6.55295      -14.67804      6.585539 
 10            275           6.501438     -14.76169      6.533788 
 15            275           6.365986     -14.89466      6.398356 
 20            275           6.146683     -15.08152      6.179293 
 25            275           5.843626     -15.32875      5.876657 
 30            275           5.45732      -15.6449       5.490887 
 35            275           4.989229     -16.04088      5.023356 
 40            275           4.44253      -16.53049      4.477107 
 45            275           3.82311      -17.13131      3.857834 
 50            275           3.14085      -17.86628      3.175157 
 55            275           2.411119     -18.76655      2.44411 
 60            275           1.656339     -19.87645      1.686749 
 65            275           .9071089     -21.26335      .9333789 
 70            275           .2021429     -23.03862      .2226882 
 75            275          -.4139379     -25.40947     -.4002108 
 80            275          -.8954848     -28.83931     -.8885171 
 85            275          -1.202635     -34.80451     -1.20074 
 90            275          -1.308227     -152.9261     -1.308227 
 0             280           6.420347     -8.65347       6.553318 
 5             280           6.454488     -8.69015       6.585342 
 10            280           6.404792     -8.773139      6.534662 
 15            280           6.271604     -8.905136      6.401508 
 20            280           6.05503      -9.090727      6.18585 
 25            280           5.755208     -9.336423      5.887644 
 30            280           5.372688     -9.650817      5.507186 
 35            280           4.90899      -10.04488      5.045628 
 40            280           4.367365     -10.53243      4.505688 
 45            280           3.753801     -11.13113      3.892591 
 50            280           3.078282     -11.86399      3.21528 
 55            280           2.356277     -12.76219      2.487909 
 60            280           1.610238     -13.87015      1.731491 
 65            280           .870649      -15.25528      .975355 
 70            280           .1758357     -17.02902      .2577245 
 75            280          -.4303468     -19.39863     -.3756142 
 80            280          -.9033837     -22.82755     -.875586 
 85            280          -1.204713     -28.79219     -1.19715 
 90            280          -1.308227     -150.2442     -1.308227 
 0             285           6.25219      -5.186907      6.553318 
 5             285           6.288697     -5.223046      6.584997 
 10            285           6.242066     -5.304952      6.536048 
 15            285           6.112669     -5.435355      6.406585 
 20            285           5.900678     -5.618866      6.196464 
 25            285           5.60628      -5.862059      5.905454 
 30            285           5.230105     -6.17359       5.533613 
 35            285           4.773775     -6.564498      5.081731 
 40            285           4.240681     -7.048704      4.552001 
 45            285           3.636974     -7.643944      3.948879 
 50            285           2.972825     -8.373338      3.280241 
 55            285           2.263867     -9.268174      2.558831 
 60            285           1.532602     -10.37296      1.804001 
 65            285           .8093056     -11.75522      1.043508 
 70            285           .1316272     -13.52647      .3147774 
 75            285          -.4578831     -15.89405     -.3354062 
 80            285          -.9166241     -19.32148     -.8543636 
 85            285          -1.208191     -25.28519     -1.191236 
 90            285          -1.308227     -143.8189     -1.308227 
 0             290           6.013027     -2.765768      6.553318 
 5             290           6.052941     -2.801161      6.58449 
 10            290           6.010668     -2.881594      6.537837 
 15            290           5.886655     -3.009824      6.413343 
 20            290           5.681138     -3.190511      6.210668 
 25            290           5.394408     -3.430299      5.929352 
 30            290           5.027205     -3.737937      5.569094 
 35            290           4.581317     -4.124562      5.130201 
 40            290           4.060332     -4.60422       4.614143 
 45            290           3.470652     -5.194769      4.024358 
 50            290           2.822724     -5.919468      3.367312 
 55            290           2.13241      -6.809742      2.653906 
 60            290           1.422276     -7.910228      1.901324 
 65            290           .7222662     -9.288589      1.135224 
 70            290           6.902471E-02 -11.05647      .3918828 
 75            290          -.4967909     -13.42131     -.2807638 
 80            290          -.9352922     -16.84671     -.8253512 
 85            290          -1.21309      -22.80918     -1.183118 
 90            290          -1.308227     -143.4419     -1.308227 
 0             295           5.698823     -.9278126      6.553318 
 5             295           5.743277     -.9622737      6.583783 
 10            295           5.706762     -1.040875      6.539892 
 15            295           5.589809     -1.166405      6.421443 
 20            295           5.392757     -1.343598      6.227859 
 25            295           5.116032     -1.57918       5.958359 
 30            295           4.760552     -1.882013      5.612207 
 35            295           4.32833      -2.263356      5.189089 
 40            295           3.823243     -2.737403      4.689599 
 45            295           3.252037     -3.322171      4.115944 
 50            295           2.625533     -4.041083      3.472915 
 55            295           1.959895     -4.925734      2.769252 
 60            295           1.277736     -6.020932      2.01958 
 65            295           .6085038     -7.394501      1.247035 
 70            295          -1.255876E-02 -9.158232      .4863813 
 75            295          -.5473321     -11.5197      -.2133221 
 80            295          -.9594722     -14.94261     -.7892736 
 85            295          -1.219419     -20.90355     -1.172959 
 90            295          -1.308227     -138.0409     -1.308227 
 0             300           5.303917      .5326408      6.553319 
 5             300           5.354202      .49928        6.582844 
 10            300           5.324987      .4228275      6.542036 
 15            300           5.216911      .3004432      6.430468 
 20            300           5.030466      .1273181      6.247274 
 25            300           4.766261     -.1033752      5.991281 
 30            300           4.425462     -.4006218      5.661227 
 35            300           4.010394     -.7758376      5.256062 
 40            300           3.525329     -1.243381      4.775373 
 45            300           2.977478     -1.821452      4.219983 
 50            300           2.378137     -2.533665      3.592832 
 55            300           1.743834     -3.411813      2.900286 
 60            300           1.097183     -4.500895      2.154169 
 65            300           .4668862     -5.868925      1.374774 
 70            300          -.1136955     -7.627865      .59501 
 75            300          -.6097124     -9.985435     -.1351583 
 80            300          -.989195      -13.40547     -.7470828 
 85            300          -1.227179     -19.36465     -1.160995 
 90            300          -1.308227     -140.3951     -1.308227 
 0             305           4.820587      1.725082      6.553318 
 5             305           4.878225      1.692974      6.581636 
 10            305           4.858072      1.618927      6.54407 
 15            305           4.760924      1.500053      6.439944 
 20            305           4.587471      1.331458      6.268049 
 25            305           4.338581      1.106197      6.026755 
 30            305           4.015766      .8151529      5.714197 
 35            305           3.621769      .4467321      5.328494 
 40            305           3.161387     -.0136059      4.868128 
 45            305           2.642434     -.5842589      4.332442 
 50            305           2.076789     -1.289063      3.722423 
 55            305           1.481377     -2.160022      3.041977 
 60            305           .8786905     -3.242351      2.300003 
 65            305           .296343      -4.604265      1.513771 
 70            305          -.2348089     -6.357918      .7140092 
 75            305          -.6839802     -8.711192     -4.875089E-02 
 80            305          -1.024403     -12.12805     -.6999759 
 85            305          -1.236338     -18.08529     -1.147526 
 90            305          -1.308227     -137.7465     -1.308227 
 0             310           4.23837       2.714618      6.553318 
 5             310           4.305216      2.683886      6.580113 
 10            310           4.296241      2.612451      6.545779 
 15            310           4.212433      2.497358      6.449352 
 20            310           4.054767      2.333633      6.289247 
 25            310           3.82446       2.114201      6.063317 
 30            310           3.523482      1.829792      5.76902 
 35            310           3.155149      1.468637      5.403588 
 40            310           2.724949      1.015999      4.964333 
 45            310           2.24143       .4532547      4.44907 
 50            310           1.717167     -.2436486      3.856831 
 55            310           1.169452     -1.10695       3.18906 
 60            310           .6204143     -2.182091      2.451737 
 65            310           9.607045E-02 -3.537501      1.659034 
 70            310          -.3759888     -5.28553       .8392577 
 75            310          -.7699197     -7.634241      4.306712E-02 
 80            310          -1.064886     -11.04773     -.6493802 
 85            310          -1.246825     -17.00291     -1.132932 
 90            310          -1.308227     -136.619      -1.308227 
 0             315           3.542982      3.542979      6.553318 
 5             315           3.6214        3.513727      6.578235 
 10            315           3.626253      3.445041      6.54693 
 15            315           3.558796      3.333908      6.458144 
 20            315           3.420363      3.175253      6.309874 
 25            315           3.212667      2.96188       6.099422 
 30            315           2.938292      2.684356      5.823517 
 35            315           2.60131       2.330734      5.478467 
 40            315           2.208071      1.886061      5.060388 
 45            315           1.768032      1.331493      4.565583 
 50            315           1.2945        .642747       3.991176 
 55            315           .8049973     -.2126538      3.336249 
 60            315           .3208727     -1.280387      2.603965 
 65            315          -.1341893     -2.629095      1.80544 
 70            315          -.5367983     -4.371341      .9663986 
 75            315          -.8669245     -6.715353      .1371882 
 80            315          -1.110234     -10.12538     -.5969365 
 85            315          -1.258511     -16.07844     -1.117662 
 90            315          -1.308227     -138.0366     -1.308227 
 0             320           2.714621      4.238368      6.553318 
 5             320           2.807764      4.210672      6.575959 
 10            320           2.829964      4.14481       6.547295 
 15            320           2.782815      4.037708      6.465768 
 20            320           2.668155      3.884195      6.328936 
 25            320           2.488355      3.676948      6.133525 
 30            320           2.246822      3.40637       5.875519 
 35            320           1.948602      3.060324      5.550277 
 40            320           1.601122      2.623653      5.152749 
 45            320           1.214859      2.077294      4.677788 
 50            320           .8037992      1.396726      4.120712 
 55            320           .3853459      .5492348      3.478401 
 60            320          -2.063684E-02 -.5110806      2.751399 
 65            320          -.393801      -1.853095      1.947896 
 70            320          -.7160185     -3.589557      1.090996 
 75            320          -.973868      -5.92888       .2303239 
 80            320          -1.159787     -9.335449     -.5444619 
 85            320          -1.271208     -15.28639     -1.102236 
 90            320          -1.308227     -136.0564     -1.308227 
 0             325           1.725086      4.820586      6.553318 
 5             325           1.837377      4.794498      6.573244 
 10            325           1.881864      4.731468      6.546644 
 15            325           1.860592      4.628368      6.471671 
 20            325           1.776069      4.479933      6.345447 
 25            325           1.631554      4.278705      6.164108 
 30            325           1.431535      4.014933      5.922894 
 35            325           1.182303      3.676301      5.616257 
 40            325           .8925406      3.247451      5.238029 
 45            325           .5737531      2.709098      4.781699 
 50            325           .2403157      2.036495      4.240947 
 55            325          -9.118265E-02  1.196702      3.610663 
 60            325          -.4034576      .1435903      2.889012 
 65            325          -.6807854     -1.191918      2.081502 
 70            325          -.9113992     -2.922771      1.208667 
 75            325          -1.088998     -5.257544      .3191081 
 80            325          -1.212605     -8.660764     -.4938959 
 85            325          -1.284654     -14.60965     -1.087231 
 90            325          -1.308227     -133.9883     -1.308227 
 0             330           .5326454      5.303914      6.553318 
 5             330           .6706733      5.279454      6.570054 
 10            330           .7448752      5.219207      6.54477 
 15            330           .7578581      5.119982      6.475342 
 20            330           .7130305      4.976417      6.358468 
 25            330           .6148438      4.780947      6.189729 
 30            330           .4691835      4.523662      5.963656 
 35            330           .2838192      4.192078      5.673836 
 40            330           6.876279E-02  3.770643      5.313075 
 45            330          -.1637169      3.239867      4.873636 
 50            330          -.3995883      2.574793      4.347747 
 55            330          -.6243158      1.742269      3.728558 
 60            330          -.8247593      .6959534      3.012158 
 65            330          -.9912949     -.6334268      2.201662 
 70            330          -1.119392     -2.358997      1.315221 
 75            330          -1.209842     -4.689492      .4002214 
 80            330          -1.267444     -8.089559     -.4472228 
 85            330          -1.298522     -14.03652     -1.073257 
 90            330          -1.308227     -133.6194     -1.308227 
 0             335          -.9278059      5.69882       6.553318 
 5             335          -.7534739      5.675988      6.566364 
 10            335          -.6375073      5.618404      6.541478 
 15            335          -.5766261      5.522828      6.476299 
 20            335          -.5662435      5.383816      6.367144 
 25            335          -.6003751      5.193685      6.209077 
 30            335          -.6714455      4.942392      5.995978 
 35            335          -.7701057      4.617296      5.720667 
 40            335          -.8853245      4.202672      5.375033 
 45            335          -1.004934      3.678841      4.950284 
 50            335          -1.116755      3.020653      4.437404 
 55            335          -1.210267      2.194764      3.828079 
 60            335          -1.278427      1.154648      3.116651 
 65            335          -1.319017     -.1691486      2.3042 
 70            335          -1.334939     -1.889911      1.406772 
 75            335          -1.333182     -4.216513      .4705031 
 80            335          -1.322789     -7.613718     -.4063983 
 85            335          -1.31242      -13.55892     -1.06093 
 90            335          -1.308227     -135.0154     -1.308227 
 0             340          -2.76576       6.013027      6.553319 
 5             340          -2.536443      5.991796      6.562153 
 10            340          -2.357084      5.936705      6.536609 
 15            340          -2.223817      5.844469      6.474133 
 20            340          -2.130674      5.70957       6.370718 
 25            340          -2.069917      5.524225      6.220983 
 30            340          -2.032274      5.278272      6.018254 
 35            340          -2.007332      4.958934      5.754685 
 40            340          -1.984278      4.550327      5.421404 
 45            340          -1.953104      4.032618      5.008744 
 50            340          -1.9061        3.380492      4.506684 
 55            340          -1.83935       2.560429      3.905727 
 60            340          -1.753669      1.525749      3.19883 
 65            340          -1.654592      .206843       2.385437 
 70            340          -1.551352     -1.509715      1.479855 
 75            340          -1.45509      -3.832914      .5270779 
 80            340          -1.376877     -7.227616     -.3732414 
 85            340          -1.325912     -13.17129     -1.050843 
 90            340          -1.308227     -133.613      -1.308227 
 0             345          -5.186897      6.252189      6.553318 
 5             345          -4.86453       6.232507      6.55741 
 10            345          -4.57705       6.179691      6.530035 
 15            345          -4.321234      6.09041       6.468501 
 20            345          -4.090363      5.959084      6.368555 
 25            345          -3.875626      5.777854      6.224467 
 30            345          -3.667374      5.536452      6.029119 
 35            345          -3.456399      5.221987      5.774144 
 40            345          -3.235359      4.818456      5.450075 
 45            345          -3.000168      4.305891      5.046575 
 50            345          -2.750986      3.658836      4.552858 
 55            345          -2.49252       2.843641      3.958561 
 60            345          -2.233461      1.813489      3.255609 
 65            345          -1.985229      .4986533      2.442257 
 70            345          -1.76039      -1.214408      1.531513 
 75            345          -1.571086     -3.534782      .5674577 
 80            345          -1.427813     -6.927409     -.3493625 
 85            345          -1.338541     -12.86981     -1.043527 
 90            345          -1.308227     -133.9795     -1.308227 
 0             350          -8.653456      6.420346      6.553318 
 5             350          -8.139912      6.402143      6.55214 
 10            350          -7.628259      6.351334      6.521669 
 15            350          -7.124639      6.264564      6.459154 
 20            350          -6.627346      6.136193      6.360171 
 25            350          -6.131541      5.958302      6.218757 
 30            350          -5.632561      5.720551      6.027493 
 35            350          -5.128104      5.409959      5.77765 
 40            350          -4.619473      5.010431      5.459354 
 45            350          -4.111914      4.501894      5.061812 
 50            350          -3.614121      3.8588        4.573741 
 55            350          -3.137191      3.04739       3.984212 
 60            350          -2.69336       2.02075       3.284515 
 65            350          -2.294781      .7090553      2.472159 
 70            350          -1.952618     -1.001311      1.559369 
 75            350          -1.676391     -3.319506      .5896364 
 80            350          -1.473663     -6.710536     -.3360642 
 85            350          -1.349856     -12.65196     -1.039415 
 90            350          -1.308227     -132.3437     -1.308227 
 0             355          -14.641        6.520202      6.553318 
 5             355          -13.52229      6.50339       6.546353 
 10            355          -12.32267      6.454297      6.511478 
 15            355          -11.13969      6.369537      6.445933 
 20            355          -10.00645      6.243439      6.345234 
 25            355          -8.930223      6.068042      6.203313 
 30            355          -7.910905      5.832956      6.012598 
 35            355          -6.948155      5.525146      5.764185 
 40            355          -6.043628      5.12845       5.447987 
 45            355          -5.201112      4.62274       5.052996 
 50            355          -4.425894      3.982392      4.567691 
 55            355          -3.724032      3.173591      3.980911 
 60            355          -3.101694      2.149358      3.283693 
 65            355          -2.564677      .8398115      2.473297 
 70            355          -2.118122     -.8687196      1.561692 
 75            355          -1.766314     -3.185443      .5921686 
 80            355          -1.512622     -6.575391     -.334279 
 85            355          -1.359445     -12.51616     -1.038816 
 90            355          -1.308227     -133.5099     -1.308227 
 0             360          -123.8484      6.553318      6.553318 
 5             360          -26.24724      6.537798      6.540084 
 10            360          -20.16415      6.490095      6.49947 
 15            360          -16.54278      6.406813      6.428779 
 20            360          -13.91389      6.282269      6.323586 
 25            360          -11.82346      6.10847       6.177837 
 30            360          -10.07543      5.875011      5.983981 
 35            360          -8.570707      5.568828      5.733119 
 40            360          -7.254906      5.17374       5.415181 
 45            360          -6.096857      4.669585      5.019177 
 50            360          -5.07839       4.030717      4.53364 
 55            360          -4.188952      3.223296      3.947501 
 60            360          -3.42256       2.200313      3.251955 
 65            360          -2.775967      .891869       2.444505 
 70            360          -2.247571     -.8157302      1.53743 
 75            360          -1.83669      -3.13171       .5742298 
 80            360          -1.543146     -6.521116     -.344502 
 85            360          -1.366965     -12.46156     -1.041885 
 90            360          -1.308227     -134.216      -1.308227 
