                   ****************************************
                     MINI-NUMERICAL ELECTROMAGNETICS CODE
                                   MININEC
                   ****************************************

FREQUENCY (MHZ): 299.8
    WAVE LENGTH =  1  METERS

ENVIRONMENT (+1 FOR FREE SPACE, -1 FOR GROUND PLANE): -1
 NUMBER OF MEDIA (0 FOR PERFECTLY CONDUCTING GROUND):  0

NO. OF GEO-OBJECTS: 2

WIRE NO. 1
            COORDINATES                                 END         NO. OF
   X             Y             Z          RADIUS     CONNECTION     SEGMENTS
 0             0             0                         -1
 0             0             .191          .004         0              4

WIRE NO. 2
            COORDINATES                                 END         NO. OF
   X             Y             Z          RADIUS     CONNECTION     SEGMENTS
 0             0             .191                       1
 0             .309          .191          .004         0              6

                  **** ANTENNA GEOMETRY ****

WIRE NO.  1 COORDINATES                                 CONNECTION PULSE
X             Y             Z             RADIUS        END1 END2  NO.
 0             0             0             .004         -1    1   1
 0             0             .04775        .004          1    1   2
 0             0             .0955         .004          1    1   3
 0             0             .14325        .004          1    0   4

WIRE NO.  2 COORDINATES                                 CONNECTION PULSE
X             Y             Z             RADIUS        END1 END2  NO.
 0             0             .191          .004          1    2   5
 0             .0515         .191          .004          2    2   6
 0             .103          .191          .004          2    2   7
 0             .1545         .191          .004          2    2   8
 0             .206          .191          .004          2    2   9
 0             .2575         .191          .004          2    0  10

NO. OF SOURCES :  1
PULSE NO., VOLTAGE MAGNITUDE, PHASE (DEGREES):  1 , 1 , 0
NUMBER OF LOADS 0

********************    SOURCE DATA     ********************
PULSE  1      VOLTAGE = ( 1 , 0 J)
              CURRENT = ( 9.852265E-04 ,  1.479976E-03 J)
              IMPEDANCE = ( 311.6818 , -468.1986 J)
              POWER =  4.926132E-04  WATTS

********************    CURRENT DATA    ********************

WIRE NO.  1 :
PULSE         REAL          IMAGINARY     MAGNITUDE     PHASE
 NO.          (AMPS)        (AMPS)        (AMPS)        (DEGREES)
 1             9.852265E-04  1.479976E-03  1.777920E-03  56.34812 
 2             9.619987E-04 -7.880559E-04  1.243573E-03 -39.32386 
 3             8.940952E-04 -2.186393E-03  2.362144E-03 -67.75857 
 4             7.867734E-04 -3.248649E-03  3.342563E-03 -76.38596 
J              6.457146E-04 -3.943690E-03  3.996203E-03 -80.70126 
WIRE NO.  2 :
PULSE         REAL          IMAGINARY     MAGNITUDE     PHASE
 NO.          (AMPS)        (AMPS)        (AMPS)        (DEGREES)
J              6.457146E-04 -3.943690E-03  3.996203E-03 -80.70126 
 6             5.160319E-04 -4.466379E-03  4.496091E-03 -83.40944 
 7             3.756798E-04 -4.519855E-03  4.535440E-03 -85.24863 
 8             2.408051E-04 -4.093049E-03  4.100127E-03 -86.63302 
 9             1.252213E-04 -3.201489E-03  3.203937E-03 -87.76011 
 10            4.121437E-05 -1.891712E-03  1.892161E-03 -88.75191 
E              0             0             0             0

********************     FAR FIELD      ********************

ZENITH ANGLE : INITIAL,INCREMENT,NUMBER: 0 , 5 , 19
AZIMUTH ANGLE: INITIAL,INCREMENT,NUMBER: 0 , 5 , 73

********************    PATTERN DATA    ********************
ZENITH        AZIMUTH       VERTICAL      HORIZONTAL    TOTAL
 ANGLE         ANGLE        PATTERN (DB)  PATTERN (DB)  PATTERN (DB)
 0             0            -999           6.553277      6.553277
 5             0            -26.24685      6.537755      6.540042
 10            0            -20.16381      6.490056      6.49943 
 15            0            -16.54248      6.406774      6.42874 
 20            0            -13.91362      6.28223       6.323547
 25            0            -11.82322      6.108434      6.1778  
 30            0            -10.0752       5.874978      5.983948
 35            0            -8.570497      5.568799      5.73309 
 40            0            -7.254715      5.173715      5.415158
 45            0            -6.096681      4.669568      5.019161
 50            0            -5.078227      4.030709      4.533632
 55            0            -4.188803      3.223298      3.947502
 60            0            -3.422419      2.200328      3.251968
 65            0            -2.775836      .8919         2.444533
 70            0            -2.247445     -.815679       1.537475
 75            0            -1.836571     -3.13163       .574295 
 80            0            -1.54303      -6.520994     -.344415 
 85            0            -1.366851     -12.46136     -1.04178 
 90            0            -1.308114     -999          -1.308114
 0             5            -14.6408       6.520161      6.553277
 5             5            -15.46327      6.505817      6.533328
 10            5            -15.67438      6.459174      6.485666
 15            5            -15.08666      6.376824      6.407719
 20            5            -13.85837      6.253087      6.295211
 25            5            -12.32312      6.079973      6.142255
 30            5            -10.73359      5.847082      5.941485
 35            5            -9.216003      5.541358      5.68421 
 40            5            -7.820353      5.146628      5.360594
 45            5            -6.562453      4.642746      4.959928
 50            5            -5.444871      4.004076      4.47109 
 55            5            -4.465792      3.196791      3.883449
 60            5            -3.622439      2.173898      3.188786
 65            5            -2.912279      .865509       2.385354
 70            5            -2.333344     -.842056       1.486298
 75            5            -1.884227     -3.158006      .535716 
 80            5            -1.563993     -6.547377     -.366685 
 85            5            -1.372059     -12.48775     -1.048512
 90            5            -1.308114     -999          -1.308114
 0             10           -8.653318      6.420306      6.553277
 5             10           -9.148123      6.407019      6.526224
 10            10           -9.581141      6.361093      6.47026 
 15            10           -9.881807      6.279126      6.382996
 20            10           -9.960371      6.155454      6.260395
 25            10           -9.740424      5.982113      6.09687 
 30            10           -9.203718      5.748733      5.885408
 35            10           -8.406735      5.4423        5.61772 
 40            10           -7.450393      5.046684      5.284442
 45            10           -6.435637      4.54179       4.875411
 50            10           -5.439125      3.902032      4.380158
 55            10           -4.510689      3.093635      3.788862
 60            10           -3.679973      2.069657      3.09432 
 65            10           -2.963748      .760259       2.296054
 70            10           -2.371226     -.948197       1.408614
 75            10           -1.907366     -3.264882      .477002 
 80            10           -1.574787     -6.654801     -.400566 
 85            10           -1.374827     -12.59551     -1.058734
 90            10           -1.308114     -999          -1.308114
 0             15           -5.186798      6.252153      6.553277
 5             15           -5.541728      6.239797      6.518799
 10            15           -5.918322      6.194255      6.453378
 15            15           -6.292915      6.112139      6.354848
 20            15           -6.624798      5.987816      6.219496
 25            15           -6.855435      5.81337       6.042148
 30            15           -6.917587      5.578487      5.816299
 35            15           -6.758282      5.270225      5.534262
 40            15           -6.365998      4.872534      5.187377
 45            15           -5.780051      4.3654        4.766303
 50            15           -5.072963      3.723327      4.261555
 55            15           -4.322391      2.91263       3.664506
 60            15           -3.592457      1.886452      2.969431
 65            15           -2.928646      .575037       2.177636
 70            15           -2.360408     -1.13518       1.305571
 75            15           -1.90578      -3.453305      .399325 
 80            15           -1.575375     -6.844291     -.445169 
 85            15           -1.375156     -12.78566     -1.07212 
 90            15           -1.308114     -999          -1.308114
 0             20           -2.765689      6.012993      6.553277
 5             20           -3.046022      6.001444      6.511132
 10            20           -3.374266      5.955967      6.435234
 15            20           -3.740849      5.873201      6.323666
 20            20           -4.126416      5.747558      6.173094
 25            20           -4.498108      5.571186      5.978859
 30            20           -4.80773       5.333858      5.735102
 35            20           -4.996348      5.022726      5.434922
 40            20           -5.009737      4.62185       5.070591
 45            20           -4.821386      4.111335      4.633879
 50            20           -4.447939      3.465808      4.11663 
 55            20           -3.943388      2.651705      3.511826
 60            20           -3.377307      1.62229       2.815698
 65            20           -2.814282      .30792        2.031851
 70            20           -2.30408      -1.404867      1.179058
 75            20           -1.880858     -3.725089      .304494 
 80            20           -1.56629      -7.117626     -.499193 
 85            20           -1.373167     -13.05995     -1.088209
 90            20           -1.308114     -999          -1.308114
 0             25           -.927758       5.698791      6.553277
 5             25           -1.162201      5.687925      6.503313
 10            25           -1.456273      5.64222       6.416088
 15            25           -1.805877      5.558348      6.28994 
 20            25           -2.201054      5.430781      6.121949
 25            25           -2.622821      5.251748      5.908043
 30            25           -3.039736      5.011126      5.643123
 35            25           -3.406269      4.69619       5.321235
 40            25           -3.666997      4.291137      4.935809
 45            25           -3.770499      3.77622       4.480017
 50            25           -3.690205      3.126216      3.947392
 55            25           -3.439102      2.307716      3.332971
 60            25           -3.065731      1.274135      2.635441
 65            25           -2.634993     -.044031       1.861207
 70            25           -2.208705     -1.760115      1.031679
 75            25           -1.835388     -4.083024      .194904 
 80            25           -1.548566     -7.477548     -.560987 
 85            25           -1.369096     -13.42109     -1.10644 
 90            25           -1.308114     -999          -1.308114
 0             30            .532677       5.30389       6.553277
 5             30            .329045       5.293588      6.495443
 10            30            .059255       5.247395      6.396242
 15            30           -.275113       5.162021      6.254254
 20            30           -.668752       5.032007      6.066987
 25            30           -1.110193      4.84968       5.830994
 30            30           -1.578603      4.605039      5.542017
 35            30           -2.040641      4.285502      5.195189
 40            30           -2.449712      3.875424      4.785302
 45            30           -2.751624      3.35523       4.307216
 50            30           -2.899564      2.699876      3.756539
 55            30           -2.8739        1.876132      3.130825
 60            30           -2.693524      .837588       2.431741
 65            30           -2.408922     -.485094       1.668959
 70            30           -2.082926     -2.205097      .866718 
 75            30           -1.77319      -4.531198      .073458 
 80            30           -1.523633     -7.928081     -.628636 
 85            30           -1.363264     -13.87307     -1.126183
 90            30           -1.308114     -999          -1.308114
 0             35            1.725103      4.820567      6.553277
 5             35            1.543373      4.81072       6.487629
 10            35            1.291212      4.763817      6.37603 
 15            35            .968919       4.676615      6.217275
 20            35            .57927        4.543731      6.009285
 25            35            .129421       4.357601      5.749244
 30            35           -.366385       4.108358      5.433782
 35            35           -.883563       3.783579      5.059219
 40            35           -1.384627      3.367798      4.62189 
 45            35           -1.820199      2.841628      4.118621
 50            35           -2.137567      2.180224      3.547482
 55            35           -2.29777       1.350558      2.909033
 60            35           -2.293554      .306413       2.208455
 65            35           -2.154764     -1.021363      1.459106
 70            35           -1.93632      -2.745785      .688079 
 75            35           -1.698679     -5.075485     -.056531 
 80            35           -1.493178     -8.475027     -.700056 
 85            35           -1.356057     -14.42165     -1.146781
 90            35           -1.308114     -999          -1.308114
 0             40            2.714627      4.238356      6.553277
 5             40            2.549077      4.228863      6.479983
 10            40            2.309949      4.181075      6.355812
 15            40            1.996848      4.091796      6.179736
 20            40            1.611086      3.955728      5.950048
 25            40            1.157202      3.765421      5.664538
 30            40            .645243       3.511153      5.320731
 35            40            .09375        3.180671      4.916193
 40            40           -.46714        2.758695      4.448945
 45            40           -.994398       2.226045      3.918034
 50            40           -1.436111      1.558089      3.324375
 55            40           -1.744001      .72201        2.672034
 60            40           -1.891961     -.328196       1.970227
 65            40           -1.889391     -1.661484      1.236357
 70            40           -1.778299     -3.390688      .500209 
 75            40           -1.616429     -5.724281     -.191463 
 80            40           -1.459007     -9.126698     -.773095 
 85            40           -1.347892     -15.07508     -1.167583
 90            40           -1.308114     -999          -1.308114
 0             45            3.542977      3.542977      6.553277
 5             45            3.389696      3.533749      6.47262 
 10            45            3.160323      3.484948      6.335968
 15            45            2.854076      3.39343       6.14242 
 20            45            2.47138       3.253981      5.890585
 25            45            2.015127      3.059271      5.578803
 30            45            1.492609      2.799727      5.20546 
 35            45            .918192       2.463268      4.769382
 40            45            .316453       2.034813      4.270372
 45            45           -.275439       1.495391      3.709914
 50            45           -.808892       .820588       3.092127
 55            45           -1.232305     -.022187       2.425066
 60            45           -1.507481     -1.078724      1.722486
 65            45           -1.626636     -2.417768      1.006088
 70            45           -1.617338     -4.151964      .30799  
 75            45           -1.53082      -6.489623     -.327576 
 80            45           -1.422909     -9.895045     -.845629 
 85            45           -1.339194     -15.84527     -1.187979
 90            45           -1.308114     -999          -1.308114
 0             50            4.238356      2.714627      6.553277
 5             50            4.094537      2.705588      6.465653
 10            50            3.872513      2.655699      6.316884
 15            50            3.57129       2.561866      6.106139
 20            50            3.190741      2.418963      5.832273
 25            50            2.732689      2.219776      5.4941  
 30            50            2.202575      1.954882      5.090794
 35            50            1.611845      1.612374      4.622409
 40            50            .980955       1.177366      4.090571
 45            50            .342208       .631097       3.499354
 50            50           -.25971       -.050624       2.856391
 55            50           -.77303       -.900167       2.174167
 60            50           -1.152455     -1.9631        1.471409
 65            50           -1.377017     -3.307961      .774255 
 70            50           -1.460551     -5.047205      .116613 
 75            50           -1.445786     -7.388974     -.461092 
 80            50           -1.386564     -10.79743     -.915653 
 85            50           -1.330366     -16.74953     -1.207423
 90            50           -1.308114     -999          -1.308114
 0             55            4.820567      1.725103      6.553277
 5             55            4.684112      1.71619       6.459196
 10            55            4.467635      1.66519       6.298944
 15            55            4.170026      1.569057      6.071712
 20            55            3.790813      1.422747      5.776523
 25            55            3.331114      1.219164      5.412572
 30            55            2.795102      .949026       4.979724
 35            55            2.192158      .600595       4.47918 
 40            55            1.539697      .159175       3.914361
 45            55            .866161      -.393791       3.292017
 50            55            .212548      -1.08228       2.623512
 55            55           -.370661      -1.938443      1.926112
 60            55           -.834363      -3.007634      1.223848
 65            55           -1.14803      -4.358188      .54728  
 70            55           -1.313576     -6.102371     -.068577 
 75            55           -1.364668     -8.448164     -.588348 
 80            55           -1.351462     -11.8596      -.98135  
 85            55           -1.321779     -17.81352     -1.225444
 90            55           -1.308114     -999          -1.308114
 0             60            5.30389       .532677       6.553277
 5             60            5.173177      .523841       6.453356
 10            60            4.960873      .471755       6.28252 
 15            60            4.665807      .373423       6.039941
 20            60            4.287294      .223876       5.724735
 25            60            3.82598       .016126       5.336381
 30            60            3.285161     -.258974       4.875317
 35            60            2.672749     -.613006       4.34377 
 40            60            2.003917     -1.060488      3.746869
 45            60            1.304113     -1.619784      3.094018
 50            60            .611162      -2.314669      2.400414
 55            60           -.026271      -3.177091      1.688305
 60            60           -.557294      -4.252199      .98719  
 65            60           -.944702      -5.608136      .331882 
 70            60           -1.180653     -7.356992     -.242257 
 75            60           -1.290178     -9.706592     -.705922 
 80            60           -1.31887      -13.12084     -1.041138
 85            60           -1.313754     -19.07649     -1.241659
 90            60           -1.308114     -999          -1.308114
 0             65            5.698791     -.927758       6.553277
 5             65            5.572529     -.936555       6.448229
 10            65            5.363334     -.98965        6.267961
 15            65            5.070011     -1.089999      6.011585
 20            65            4.691744     -1.242501      5.678253
 25            65            4.228862     -1.454046      5.267634
 30            65            3.684055     -1.733664      4.780613
 35            65            3.064184     -2.092789      4.220296
 40            65            2.382781     -2.545783      3.593362
 45            65            1.663011     -3.110835      2.911741
 50            65            .940113      -3.811537      2.194399
 55            65            .260892      -4.679651      1.468562
 60            65           -.32312       -5.760143      .769138 
 65            65           -.770188      -7.120979      .134852 
 70            65           -1.06482      -8.874089     -.399306 
 75            65           -1.224414     -11.22716     -.810736 
 80            65           -1.28982      -14.64397     -1.093698
 85            65           -1.306559     -20.60119     -1.255769
 90            65           -1.308114     -999          -1.308114
 0             70            6.012993     -2.765689      6.553277
 5             70            5.89012      -2.774472      6.443906
 10            70            5.683201     -2.828458      6.255582
 15            70            5.391035     -2.930568      5.987339
 20            70            5.012727     -3.08564       5.638321
 25            70            4.548396     -3.300482      5.208304
 30            70            4.000313     -3.584019      4.698504
 35            70            3.374599     -3.947563      4.112738
 40            70            2.683593     -4.405338      3.459023
 45            70            1.948763     -4.975383      2.75157 
 50            70            1.20332      -5.681133      2.012852
 55            70            .49242       -6.554186      1.2748  
 60            70           -.132369      -7.639351      .577396 
 65            70           -.626312      -9.004441     -.037219 
 70            70           -.968147      -10.76124     -.534998 
 75            70           -1.168936     -13.11732     -.900132 
 80            70           -1.265114     -16.53636     -1.137973
 85            70           -1.300411     -22.49495     -1.267549
 90            70           -1.308114     -999          -1.308114
 0             75            6.252153     -5.186798      6.553277
 5             75            6.131771     -5.195581      6.440461
 10            75            5.926463     -5.250302      6.245654
 15            75            5.635033     -5.353853      5.967808
 20            75            5.25654      -5.511021      5.606031
 25            75            4.790966     -5.72855       5.16015 
 30            75            4.240301     -6.015279      4.631605
 35            75            3.610152     -6.382422      4.024754
 40            75            2.912021     -6.84409       3.348694
 45            75            2.166152     -7.418201      2.619553
 50            75            1.40425      -8.128061      1.862837
 55            75            .670135      -9.005138      1.114607
 60            75            .015158      -10.09411      .419264 
 65            75           -.51402       -11.46267     -.178264 
 70            75           -.891977      -13.22248     -.645183 
 75            75           -1.124852     -15.58101     -.971919 
 80            75           -1.245355     -19.00187     -1.173158
 85            75           -1.295473     -24.96157     -1.276842
 90            75           -1.308114     -999          -1.308114
 0             80            6.420306     -8.653318      6.553277
 5             80            6.30163      -8.662107      6.437956
 10            80            6.097392     -8.717376      6.238398
 15            80            5.806403     -8.821994      5.953488
 20            80            5.427694     -8.980714      5.582287
 25            80            4.961167     -9.200229      5.124639
 30            80            4.408628     -9.489317      4.582123
 35            80            3.775352     -9.859119      3.959471
 40            80            3.072284     -10.32366      3.266569
 45            80            2.31885      -10.90078      2.521   
 50            80            1.545711     -11.61368      1.750619
 55            80            .795724      -12.49373      .994723 
 60            80            .119969      -13.58551      .301164 
 65            80           -.433719      -14.95663     -.28308  
 70            80           -.83713       -16.71867     -.726446 
 75            80           -1.092907     -19.07902     -1.024399
 80            80           -1.230967     -22.50122     -1.198671
 85            80           -1.291867     -28.46174     -1.283542
 90            80           -1.308114     -999          -1.308114
 0             85            6.520161     -14.6408       6.553277
 5             85            6.402481     -14.6496       6.436434
 10            85            6.198853     -14.7052       6.233978
 15            85            5.908093     -14.81048      5.944745
 20            85            5.529222     -14.97015      5.567763
 25            85            5.062095     -15.19089      5.102875
 30            85            4.508418     -15.48142      4.551733
 35            85            3.873277     -15.85285      3.919289
 40            85            3.167302     -16.31916      3.21591 
 45            85            2.409443     -16.89812      2.460083
 50            85            1.629756     -17.61288      1.681154
 55            85            .870515      -18.49476      .920491 
 60            85            .182598      -19.58828      .228141 
 65            85           -.385535      -20.96097     -.34766  
 70            85           -.804069      -22.72438     -.776249 
 75            85           -1.073571     -25.08584     -1.056364
 80            85           -1.222229     -28.50886     -1.214125
 85            85           -1.289673     -34.46989     -1.287586
 90            85           -1.308114     -999          -1.308114
 0             90            6.553277     -999           6.553277
 5             90            6.435924     -999           6.435924
 10            90            6.232493     -999           6.232493
 15            90            5.941805     -999           5.941805
 20            90            5.562874     -999           5.562874
 25            90            5.095542     -999           5.095542
 30            90            4.541484     -999           4.541484
 35            90            3.905722     -999           3.905722
 40            90            3.198786     -999           3.198786
 45            90            2.439471     -999           2.439471
 50            90            1.657632     -999           1.657632
 55            90            .89535       -999           .89535  
 60            90            .203428      -999           .203428 
 65            90           -.369476      -999          -.369476 
 70            90           -.793026      -999          -.793026 
 75            90           -1.067099     -999          -1.067099
 80            90           -1.2193       -999          -1.2193  
 85            90           -1.288937     -999          -1.288937
 90            90           -1.308114     -999          -1.308114
 0             95            6.520161     -14.6408       6.553277
 5             95            6.402481     -14.6496       6.436434
 10            95            6.198853     -14.7052       6.233978
 15            95            5.908093     -14.81048      5.944745
 20            95            5.529222     -14.97015      5.567763
 25            95            5.062095     -15.19089      5.102875
 30            95            4.508418     -15.48142      4.551733
 35            95            3.873277     -15.85285      3.919289
 40            95            3.167302     -16.31916      3.21591 
 45            95            2.409443     -16.89812      2.460083
 50            95            1.629756     -17.61288      1.681154
 55            95            .870515      -18.49476      .920491 
 60            95            .182598      -19.58828      .228141 
 65            95           -.385535      -20.96097     -.34766  
 70            95           -.804069      -22.72438     -.776249 
 75            95           -1.073571     -25.08584     -1.056364
 80            95           -1.222229     -28.50886     -1.214125
 85            95           -1.289673     -34.46989     -1.287586
 90            95           -1.308114     -999          -1.308114
 0             100           6.420306     -8.653318      6.553277
 5             100           6.30163      -8.662107      6.437956
 10            100           6.097392     -8.717376      6.238398
 15            100           5.806403     -8.821994      5.953488
 20            100           5.427694     -8.980714      5.582287
 25            100           4.961167     -9.200229      5.124639
 30            100           4.408628     -9.489317      4.582123
 35            100           3.775352     -9.859119      3.959471
 40            100           3.072284     -10.32366      3.266569
 45            100           2.31885      -10.90078      2.521   
 50            100           1.545711     -11.61368      1.750619
 55            100           .795724      -12.49373      .994723 
 60            100           .119969      -13.58551      .301164 
 65            100          -.433719      -14.95663     -.28308  
 70            100          -.83713       -16.71867     -.726446 
 75            100          -1.092907     -19.07902     -1.024399
 80            100          -1.230967     -22.50122     -1.198671
 85            100          -1.291867     -28.46174     -1.283542
 90            100          -1.308114     -999          -1.308114
 0             105           6.252153     -5.186798      6.553277
 5             105           6.131771     -5.195581      6.440461
 10            105           5.926463     -5.250302      6.245654
 15            105           5.635033     -5.353853      5.967808
 20            105           5.25654      -5.511021      5.606031
 25            105           4.790966     -5.72855       5.16015 
 30            105           4.240301     -6.015279      4.631605
 35            105           3.610152     -6.382422      4.024754
 40            105           2.912021     -6.84409       3.348694
 45            105           2.166152     -7.418201      2.619553
 50            105           1.40425      -8.128061      1.862837
 55            105           .670135      -9.005138      1.114607
 60            105           .015158      -10.09411      .419264 
 65            105          -.51402       -11.46267     -.178264 
 70            105          -.891977      -13.22248     -.645183 
 75            105          -1.124852     -15.58101     -.971919 
 80            105          -1.245355     -19.00187     -1.173158
 85            105          -1.295473     -24.96157     -1.276842
 90            105          -1.308114     -999          -1.308114
 0             110           6.012993     -2.765689      6.553277
 5             110           5.89012      -2.774472      6.443906
 10            110           5.683201     -2.828458      6.255582
 15            110           5.391035     -2.930568      5.987339
 20            110           5.012727     -3.08564       5.638321
 25            110           4.548396     -3.300482      5.208304
 30            110           4.000313     -3.584019      4.698504
 35            110           3.374599     -3.947563      4.112738
 40            110           2.683593     -4.405338      3.459023
 45            110           1.948763     -4.975383      2.75157 
 50            110           1.20332      -5.681133      2.012852
 55            110           .49242       -6.554186      1.2748  
 60            110          -.132369      -7.639351      .577396 
 65            110          -.626312      -9.004441     -.037219 
 70            110          -.968147      -10.76124     -.534998 
 75            110          -1.168936     -13.11732     -.900132 
 80            110          -1.265114     -16.53636     -1.137973
 85            110          -1.300411     -22.49495     -1.267549
 90            110          -1.308114     -999          -1.308114
 0             115           5.698791     -.927758       6.553277
 5             115           5.572529     -.936555       6.448229
 10            115           5.363334     -.98965        6.267961
 15            115           5.070011     -1.089999      6.011585
 20            115           4.691744     -1.242501      5.678253
 25            115           4.228862     -1.454046      5.267634
 30            115           3.684055     -1.733664      4.780613
 35            115           3.064184     -2.092789      4.220296
 40            115           2.382781     -2.545783      3.593362
 45            115           1.663011     -3.110835      2.911741
 50            115           .940113      -3.811537      2.194399
 55            115           .260892      -4.679651      1.468562
 60            115          -.32312       -5.760143      .769138 
 65            115          -.770188      -7.120979      .134852 
 70            115          -1.06482      -8.874089     -.399306 
 75            115          -1.224414     -11.22716     -.810736 
 80            115          -1.28982      -14.64397     -1.093698
 85            115          -1.306559     -20.60119     -1.255769
 90            115          -1.308114     -999          -1.308114
 0             120           5.30389       .532677       6.553277
 5             120           5.173177      .523841       6.453356
 10            120           4.960873      .471755       6.28252 
 15            120           4.665807      .373423       6.039941
 20            120           4.287294      .223876       5.724735
 25            120           3.82598       .016126       5.336381
 30            120           3.285161     -.258974       4.875317
 35            120           2.672749     -.613006       4.34377 
 40            120           2.003917     -1.060488      3.746869
 45            120           1.304113     -1.619784      3.094018
 50            120           .611162      -2.314669      2.400414
 55            120          -.026271      -3.177091      1.688305
 60            120          -.557294      -4.252199      .98719  
 65            120          -.944702      -5.608136      .331882 
 70            120          -1.180653     -7.356992     -.242257 
 75            120          -1.290178     -9.706592     -.705922 
 80            120          -1.31887      -13.12084     -1.041138
 85            120          -1.313754     -19.07649     -1.241659
 90            120          -1.308114     -999          -1.308114
 0             125           4.820567      1.725103      6.553277
 5             125           4.684112      1.71619       6.459196
 10            125           4.467635      1.66519       6.298944
 15            125           4.170026      1.569057      6.071712
 20            125           3.790813      1.422747      5.776523
 25            125           3.331114      1.219164      5.412572
 30            125           2.795102      .949026       4.979724
 35            125           2.192158      .600595       4.47918 
 40            125           1.539697      .159175       3.914361
 45            125           .866161      -.393791       3.292017
 50            125           .212548      -1.08228       2.623512
 55            125          -.370661      -1.938443      1.926112
 60            125          -.834363      -3.007634      1.223848
 65            125          -1.14803      -4.358188      .54728  
 70            125          -1.313576     -6.102371     -.068577 
 75            125          -1.364668     -8.448164     -.588348 
 80            125          -1.351462     -11.8596      -.98135  
 85            125          -1.321779     -17.81352     -1.225444
 90            125          -1.308114     -999          -1.308114
 0             130           4.238356      2.714627      6.553277
 5             130           4.094537      2.705588      6.465653
 10            130           3.872513      2.655699      6.316884
 15            130           3.57129       2.561866      6.106139
 20            130           3.190741      2.418963      5.832273
 25            130           2.732689      2.219776      5.4941  
 30            130           2.202575      1.954882      5.090794
 35            130           1.611845      1.612374      4.622409
 40            130           .980955       1.177366      4.090571
 45            130           .342208       .631097       3.499354
 50            130          -.25971       -.050624       2.856391
 55            130          -.77303       -.900167       2.174167
 60            130          -1.152455     -1.9631        1.471409
 65            130          -1.377017     -3.307961      .774255 
 70            130          -1.460551     -5.047205      .116613 
 75            130          -1.445786     -7.388974     -.461092 
 80            130          -1.386564     -10.79743     -.915653 
 85            130          -1.330366     -16.74953     -1.207423
 90            130          -1.308114     -999          -1.308114
 0             135           3.542977      3.542977      6.553277
 5             135           3.389696      3.533749      6.47262 
 10            135           3.160323      3.484948      6.335968
 15            135           2.854076      3.39343       6.14242 
 20            135           2.47138       3.253981      5.890585
 25            135           2.015127      3.059271      5.578803
 30            135           1.492609      2.799727      5.20546 
 35            135           .918192       2.463268      4.769382
 40            135           .316453       2.034813      4.270372
 45            135          -.275439       1.495391      3.709914
 50            135          -.808892       .820588       3.092127
 55            135          -1.232305     -.022187       2.425066
 60            135          -1.507481     -1.078724      1.722486
 65            135          -1.626636     -2.417768      1.006088
 70            135          -1.617338     -4.151964      .30799  
 75            135          -1.53082      -6.489623     -.327576 
 80            135          -1.422909     -9.895045     -.845629 
 85            135          -1.339194     -15.84527     -1.187979
 90            135          -1.308114     -999          -1.308114
 0             140           2.714627      4.238356      6.553277
 5             140           2.549077      4.228863      6.479983
 10            140           2.309949      4.181075      6.355812
 15            140           1.996848      4.091796      6.179736
 20            140           1.611086      3.955728      5.950048
 25            140           1.157202      3.765421      5.664538
 30            140           .645243       3.511153      5.320731
 35            140           .09375        3.180671      4.916193
 40            140          -.46714        2.758695      4.448945
 45            140          -.994398       2.226045      3.918034
 50            140          -1.436111      1.558089      3.324375
 55            140          -1.744001      .72201        2.672034
 60            140          -1.891961     -.328196       1.970227
 65            140          -1.889391     -1.661484      1.236357
 70            140          -1.778299     -3.390688      .500209 
 75            140          -1.616429     -5.724281     -.191463 
 80            140          -1.459007     -9.126698     -.773095 
 85            140          -1.347892     -15.07508     -1.167583
 90            140          -1.308114     -999          -1.308114
 0             145           1.725103      4.820567      6.553277
 5             145           1.543373      4.81072       6.487629
 10            145           1.291212      4.763817      6.37603 
 15            145           .968919       4.676615      6.217275
 20            145           .57927        4.543731      6.009285
 25            145           .129421       4.357601      5.749244
 30            145          -.366385       4.108358      5.433782
 35            145          -.883563       3.783579      5.059219
 40            145          -1.384627      3.367798      4.62189 
 45            145          -1.820199      2.841628      4.118621
 50            145          -2.137567      2.180224      3.547482
 55            145          -2.29777       1.350558      2.909033
 60            145          -2.293554      .306413       2.208455
 65            145          -2.154764     -1.021363      1.459106
 70            145          -1.93632      -2.745785      .688079 
 75            145          -1.698679     -5.075485     -.056531 
 80            145          -1.493178     -8.475027     -.700056 
 85            145          -1.356057     -14.42165     -1.146781
 90            145          -1.308114     -999          -1.308114
 0             150           .532677       5.30389       6.553277
 5             150           .329045       5.293588      6.495443
 10            150           .059255       5.247395      6.396242
 15            150          -.275113       5.162021      6.254254
 20            150          -.668752       5.032007      6.066987
 25            150          -1.110193      4.84968       5.830994
 30            150          -1.578603      4.605039      5.542017
 35            150          -2.040641      4.285502      5.195189
 40            150          -2.449712      3.875424      4.785302
 45            150          -2.751624      3.35523       4.307216
 50            150          -2.899564      2.699876      3.756539
 55            150          -2.8739        1.876132      3.130825
 60            150          -2.693524      .837588       2.431741
 65            150          -2.408922     -.485094       1.668959
 70            150          -2.082926     -2.205097      .866718 
 75            150          -1.77319      -4.531198      .073458 
 80            150          -1.523633     -7.928081     -.628636 
 85            150          -1.363264     -13.87307     -1.126183
 90            150          -1.308114     -999          -1.308114
 0             155          -.927758       5.698791      6.553277
 5             155          -1.162201      5.687925      6.503313
 10            155          -1.456273      5.64222       6.416088
 15            155          -1.805877      5.558348      6.28994 
 20            155          -2.201054      5.430781      6.121949
 25            155          -2.622821      5.251748      5.908043
 30            155          -3.039736      5.011126      5.643123
 35            155          -3.406269      4.69619       5.321235
 40            155          -3.666997      4.291137      4.935809
 45            155          -3.770499      3.77622       4.480017
 50            155          -3.690205      3.126216      3.947392
 55            155          -3.439102      2.307716      3.332971
 60            155          -3.065731      1.274135      2.635441
 65            155          -2.634993     -.044031       1.861207
 70            155          -2.208705     -1.760115      1.031679
 75            155          -1.835388     -4.083024      .194904 
 80            155          -1.548566     -7.477548     -.560987 
 85            155          -1.369096     -13.42109     -1.10644 
 90            155          -1.308114     -999          -1.308114
 0             160          -2.765689      6.012993      6.553277
 5             160          -3.046022      6.001444      6.511132
 10            160          -3.374266      5.955967      6.435234
 15            160          -3.740849      5.873201      6.323666
 20            160          -4.126416      5.747558      6.173094
 25            160          -4.498108      5.571186      5.978859
 30            160          -4.80773       5.333858      5.735102
 35            160          -4.996348      5.022726      5.434922
 40            160          -5.009737      4.62185       5.070591
 45            160          -4.821386      4.111335      4.633879
 50            160          -4.447939      3.465808      4.11663 
 55            160          -3.943388      2.651705      3.511826
 60            160          -3.377307      1.62229       2.815698
 65            160          -2.814282      .30792        2.031851
 70            160          -2.30408      -1.404867      1.179058
 75            160          -1.880858     -3.725089      .304494 
 80            160          -1.56629      -7.117626     -.499193 
 85            160          -1.373167     -13.05995     -1.088209
 90            160          -1.308114     -999          -1.308114
 0             165          -5.186798      6.252153      6.553277
 5             165          -5.541728      6.239797      6.518799
 10            165          -5.918322      6.194255      6.453378
 15            165          -6.292915      6.112139      6.354848
 20            165          -6.624798      5.987816      6.219496
 25            165          -6.855435      5.81337       6.042148
 30            165          -6.917587      5.578487      5.816299
 35            165          -6.758282      5.270225      5.534262
 40            165          -6.365998      4.872534      5.187377
 45            165          -5.780051      4.3654        4.766303
 50            165          -5.072963      3.723327      4.261555
 55            165          -4.322391      2.91263       3.664506
 60            165          -3.592457      1.886452      2.969431
 65            165          -2.928646      .575037       2.177636
 70            165          -2.360408     -1.13518       1.305571
 75            165          -1.90578      -3.453305      .399325 
 80            165          -1.575375     -6.844291     -.445169 
 85            165          -1.375156     -12.78566     -1.07212 
 90            165          -1.308114     -999          -1.308114
 0             170          -8.653318      6.420306      6.553277
 5             170          -9.148123      6.407019      6.526224
 10            170          -9.581141      6.361093      6.47026 
 15            170          -9.881807      6.279126      6.382996
 20            170          -9.960371      6.155454      6.260395
 25            170          -9.740424      5.982113      6.09687 
 30            170          -9.203718      5.748733      5.885408
 35            170          -8.406735      5.4423        5.61772 
 40            170          -7.450393      5.046684      5.284442
 45            170          -6.435637      4.54179       4.875411
 50            170          -5.439125      3.902032      4.380158
 55            170          -4.510689      3.093635      3.788862
 60            170          -3.679973      2.069657      3.09432 
 65            170          -2.963748      .760259       2.296054
 70            170          -2.371226     -.948197       1.408614
 75            170          -1.907366     -3.264882      .477002 
 80            170          -1.574787     -6.654801     -.400566 
 85            170          -1.374827     -12.59551     -1.058734
 90            170          -1.308114     -999          -1.308114
 0             175          -14.6408       6.520161      6.553277
 5             175          -15.46327      6.505817      6.533328
 10            175          -15.67438      6.459174      6.485666
 15            175          -15.08666      6.376824      6.407719
 20            175          -13.85837      6.253087      6.295211
 25            175          -12.32312      6.079973      6.142255
 30            175          -10.73359      5.847082      5.941485
 35            175          -9.216003      5.541358      5.68421 
 40            175          -7.820353      5.146628      5.360594
 45            175          -6.562453      4.642746      4.959928
 50            175          -5.444871      4.004076      4.47109 
 55            175          -4.465792      3.196791      3.883449
 60            175          -3.622439      2.173898      3.188786
 65            175          -2.912279      .865509       2.385354
 70            175          -2.333344     -.842056       1.486298
 75            175          -1.884227     -3.158006      .535716 
 80            175          -1.563993     -6.547377     -.366685 
 85            175          -1.372059     -12.48775     -1.048512
 90            175          -1.308114     -999          -1.308114
 0             180          -999           6.553277      6.553277
 5             180          -26.24685      6.537755      6.540042
 10            180          -20.16381      6.490056      6.49943 
 15            180          -16.54248      6.406774      6.42874 
 20            180          -13.91362      6.28223       6.323547
 25            180          -11.82322      6.108434      6.1778  
 30            180          -10.0752       5.874978      5.983948
 35            180          -8.570497      5.568799      5.73309 
 40            180          -7.254715      5.173715      5.415158
 45            180          -6.096681      4.669568      5.019161
 50            180          -5.078227      4.030709      4.533632
 55            180          -4.188803      3.223298      3.947502
 60            180          -3.422419      2.200328      3.251968
 65            180          -2.775836      .8919         2.444533
 70            180          -2.247445     -.815679       1.537475
 75            180          -1.836571     -3.13163       .574295 
 80            180          -1.54303      -6.520994     -.344415 
 85            180          -1.366851     -12.46136     -1.04178 
 90            180          -1.308114     -999          -1.308114
 0             185          -14.6408       6.520161      6.553277
 5             185          -13.5221       6.50335       6.546312
 10            185          -12.32248      6.454258      6.511438
 15            185          -11.1395       6.369496      6.44589 
 20            185          -10.00626      6.243403      6.345196
 25            185          -8.930043      6.068007      6.203276
 30            185          -7.910728      5.832925      6.012566
 35            185          -6.947983      5.525117      5.764155
 40            185          -6.043467      5.128427      5.447963
 45            185          -5.200957      4.622723      5.052978
 50            185          -4.425748      3.982384      4.567682
 55            185          -3.723893      3.173594      3.980912
 60            185          -3.10156       2.149373      3.283706
 65            185          -2.56455       .839843       2.473324
 70            185          -2.117999     -.868667       1.561737
 75            185          -1.766197     -3.185361      .592233 
 80            185          -1.512506     -6.575267     -.334191 
 85            185          -1.359332     -12.51596     -1.038711
 90            185          -1.308114     -999          -1.308114
 0             190          -8.653318      6.420306      6.553277
 5             190          -8.139778      6.402102      6.552096
 10            190          -7.628126      6.351297      6.521629
 15            190          -7.124508      6.264525      6.459113
 20            190          -6.627212      6.136158      6.360134
 25            190          -6.131408      5.958269      6.218721
 30            190          -5.632428      5.72052       6.02746 
 35            190          -5.12797       5.409933      5.777621
 40            190          -4.61934       5.010409      5.45933 
 45            190          -4.111782      4.50188       5.061795
 50            190          -3.613991      3.858792      4.573731
 55            190          -3.137065      3.047393      3.984213
 60            190          -2.693234      2.020765      3.284527
 65            190          -2.29466       .709089       2.472186
 70            190          -1.952498     -1.001255      1.559416
 75            190          -1.676277     -3.319424      .589701 
 80            190          -1.47355      -6.710411     -.335978 
 85            190          -1.349744     -12.65177     -1.039311
 90            190          -1.308114     -999          -1.308114
 0             195          -5.186798      6.252153      6.553277
 5             195          -4.864436      6.232469      6.557367
 10            195          -4.576955      6.179653      6.529993
 15            195          -4.32114       6.090374      6.468461
 20            195          -4.090265      5.959052      6.368519
 25            195          -3.875527      5.777822      6.224431
 30            195          -3.667272      5.536424      6.029085
 35            195          -3.456293      5.221963      5.774115
 40            195          -3.235251      4.818437      5.450051
 45            195          -3.000058      4.305877      5.046557
 50            195          -2.750874      3.65883       4.552849
 55            195          -2.492405      2.843648      3.958562
 60            195          -2.233344      1.81351       3.255624
 65            195          -1.985114      .498689       2.442285
 70            195          -1.760274     -1.214352      1.531559
 75            195          -1.570973     -3.534697      .567523 
 80            195          -1.427699     -6.927281     -.349275 
 85            195          -1.338429     -12.86961     -1.043422
 90            195          -1.308114     -999          -1.308114
 0             200          -2.765689      6.012993      6.553277
 5             200          -2.536374      5.99176       6.56211 
 10            200          -2.357015      5.936671      6.536567
 15            200          -2.223748      5.844436      6.474092
 20            200          -2.130603      5.709539      6.37068 
 25            200          -2.069843      5.524196      6.220947
 30            200          -2.032196      5.278248      6.018221
 35            200          -2.007248      4.958912      5.754656
 40            200          -1.984192      4.550311      5.42138 
 45            200          -1.953012      4.032609      5.008728
 50            200          -1.906003      3.380489      4.506674
 55            200          -1.839248      2.56044       3.90573 
 60            200          -1.753563      1.525772      3.198845
 65            200          -1.654484      .206882       2.385467
 70            200          -1.551241     -1.509653      1.479903
 75            200          -1.45498      -3.832823      .527145 
 80            200          -1.376766     -7.227483     -.373153 
 85            200          -1.3258       -13.17109     -1.050738
 90            200          -1.308114     -999          -1.308114
 0             205          -.927758       5.698791      6.553277
 5             205          -.753427       5.675958      6.566322
 10            205          -.63746        5.618375      6.541437
 15            205          -.576579       5.5228        6.476258
 20            205          -.566192       5.38379       6.367106
 25            205          -.600321       5.193662      6.209041
 30            205          -.671386       4.942373      5.995948
 35            205          -.77004        4.617281      5.72064 
 40            205          -.885255       4.20266       5.375011
 45            205          -1.004858      3.678836      4.950269
 50            205          -1.116672      3.020657      4.437398
 55            205          -1.210178      2.194779      3.828083
 60            205          -1.27833       1.154676      3.116668
 65            205          -1.318915     -.169103       2.304232
 70            205          -1.334833     -1.889845      1.406821
 75            205          -1.333074     -4.216418      .470571 
 80            205          -1.322677     -7.613581     -.406308 
 85            205          -1.312308     -13.55871     -1.060825
 90            205          -1.308114     -999          -1.308114
 0             210           .532677       5.30389       6.553277
 5             210           .670704       5.27943       6.570013
 10            210           .744906       5.219182      6.544728
 15            210           .757889       5.119957      6.4753  
 20            210           .713065       4.976396      6.35843 
 25            210           .614883       4.780928      6.189695
 30            210           .469228       4.523647      5.963625
 35            210           .283871       4.192068      5.673811
 40            210           .068819       3.770638      5.313054
 45            210          -.163652       3.23987       4.873623
 50            210          -.399516       2.574804      4.347743
 55            210          -.624235       1.74229       3.728565
 60            210          -.824669       .695988       3.012178
 65            210          -.991199      -.633375       2.201697
 70            210          -1.11929      -2.358925      1.315273
 75            210          -1.209737     -4.689391      .400291 
 80            210          -1.267335     -8.089419     -.447134 
 85            210          -1.29841      -14.03631     -1.073151
 90            210          -1.308114     -999          -1.308114
 0             215           1.725103      4.820567      6.553277
 5             215           1.837393      4.794479      6.573202
 10            215           1.881881      4.73145       6.546603
 15            215           1.86061       4.628352      6.471632
 20            215           1.776088      4.479917      6.345408
 25            215           1.631578      4.278692      6.164072
 30            215           1.431567      4.014924      5.922864
 35            215           1.182342      3.676298      5.616233
 40            215           .892585       3.247453      5.238011
 45            215           .573807       2.709106      4.781689
 50            215           .240378       2.036511      4.240945
 55            215          -.09111        1.19673       3.610672
 60            215          -.403375       .143632       2.889035
 65            215          -.680695      -1.191859      2.081539
 70            215          -.9113        -2.92269       1.208723
 75            215          -1.088894     -5.257436      .319181 
 80            215          -1.212496     -8.660614     -.493804 
 85            215          -1.284543     -14.60943     -1.087125
 90            215          -1.308114     -999          -1.308114
 0             220           2.714627      4.238356      6.553277
 5             220           2.807769      4.210662      6.575918
 10            220           2.829968      4.144799      6.547253
 15            220           2.782821      4.037699      6.465727
 20            220           2.668164      3.884188      6.328899
 25            220           2.488371      3.676944      6.133492
 30            220           2.246841      3.406367      5.875487
 35            220           1.948629      3.060326      5.550251
 40            220           1.601157      2.623662      5.152733
 45            220           1.214904      2.077311      4.677779
 50            220           .803854       1.396751      4.120712
 55            220           .385411       .549272       3.478414
 60            220          -.02056       -.511032       2.751424
 65            220          -.393715      -1.853027      1.947937
 70            220          -.715923      -3.589468      1.091054
 75            220          -.973767      -5.928763      .230399 
 80            220          -1.15968      -9.335293     -.544369 
 85            220          -1.271096     -15.28616     -1.102129
 90            220          -1.308114     -999          -1.308114
 0             225           3.542977      3.542977      6.553277
 5             225           3.621395      3.513726      6.578194
 10            225           3.626248      3.445039      6.546889
 15            225           3.558792      3.333907      6.458105
 20            225           3.420362      3.175255      6.309838
 25            225           3.212674      2.961887      6.099391
 30            225           2.938305      2.684367      5.823491
 35            225           2.601329      2.330747      5.478445
 40            225           2.208098      1.886079      5.060372
 45            225           1.768069      1.33152       4.565577
 50            225           1.294547      .642782       3.99118 
 55            225           .805055      -.212608       3.336264
 60            225           .320943      -1.280326      2.603994
 65            225          -.134109      -2.629019      1.805483
 70            225          -.536706      -4.371242      .96646  
 75            225          -.866825      -6.715227      .137266 
 80            225          -1.110127     -10.12521     -.596842 
 85            225          -1.2584       -16.0782      -1.117554
 90            225          -1.308114     -999          -1.308114
 0             230           4.238356      2.714627      6.553277
 5             230           4.305203      2.683895      6.580072
 10            230           4.296226      2.612459      6.545737
 15            230           4.212423      2.49737       6.449312
 20            230           4.054757      2.333644      6.289208
 25            230           3.824458      2.114218      6.063285
 30            230           3.523485      1.82981       5.768993
 35            230           3.155162      1.468661      5.403567
 40            230           2.724968      1.016028      4.964319
 45            230           2.24146       .453291       4.449066
 50            230           1.717208     -.243603       3.856837
 55            230           1.169504     -1.106892      3.189078
 60            230           .62048       -2.182021      2.45177 
 65            230           .096147      -3.537413      1.659081
 70            230          -.3759        -5.285422      .839321 
 75            230          -.769823      -7.634104      .043146 
 80            230          -1.06478      -11.04755     -.649284 
 85            230          -1.246714     -17.00266     -1.132824
 90            230          -1.308114     -999          -1.308114
 0             235           4.820567      1.725103      6.553277
 5             235           4.878206      1.692993      6.581593
 10            235           4.858053      1.618948      6.544029
 15            235           4.760907      1.500075      6.439904
 20            235           4.587456      1.331482      6.268012
 25            235           4.338574      1.106227      6.026725
 30            235           4.015763      .815183       5.714171
 35            235           3.621773      .446767       5.328475
 40            235           3.161401     -.013563       4.868116
 45            235           2.642458     -.584211       4.332438
 50            235           2.076825     -1.289005      3.722431
 55            235           1.481426     -2.159952      3.041998
 60            235           .878752      -3.242269      2.300039
 65            235           .296417      -4.604166      1.513821
 70            235          -.234721      -6.357796      .714076 
 75            235          -.683884      -8.711043     -.048669 
 80            235          -1.024298     -12.12786     -.699879 
 85            235          -1.236228     -18.08503     -1.147419
 90            235          -1.308114     -999          -1.308114
 0             240           5.30389       .532677       6.553277
 5             240           5.354176      .499316       6.582802
 10            240           5.32496       .422864       6.541994
 15            240           5.216886      .30048        6.430428
 20            240           5.030444      .127358       6.247237
 25            240           4.766244     -.103332       5.991249
 30            240           4.425453     -.400575       5.661201
 35            240           4.010392     -.775787       5.256043
 40            240           3.525337     -1.243324      4.775362
 45            240           2.977498     -1.821386      4.219984
 50            240           2.378169     -2.53359       3.592844
 55            240           1.743879     -3.411726      2.900311
 60            240           1.097241     -4.500797      2.154207
 65            240           .466957      -5.868808      1.374827
 70            240          -.113612      -7.627725      .595079 
 75            240          -.609617      -9.985269     -.135074 
 80            240          -.98909       -13.40526     -.746984 
 85            240          -1.227069     -19.36437     -1.160886
 90            240          -1.308114     -999          -1.308114
 0             245           5.698791     -.927758       6.553277
 5             245           5.743244     -.962221       6.58374 
 10            245           5.70673      -1.040819      6.53985 
 15            245           5.589779     -1.166348      6.421403
 20            245           5.392733     -1.343539      6.227824
 25            245           5.116013     -1.579118      5.958329
 30            245           4.760541     -1.881945      5.612185
 35            245           4.328326     -2.263285      5.189073
 40            245           3.823247     -2.737326      4.68959 
 45            245           3.252053     -3.322086      4.115946
 50            245           2.62556      -4.040989      3.472929
 55            245           1.959935     -4.925629      2.769278
 60            245           1.277792     -6.020815      2.019622
 65            245           .608572      -7.394365      1.247091
 70            245          -.012476      -9.158075      .486453 
 75            245          -.547239      -11.51951     -.213236 
 80            245          -.959367      -14.94238     -.789172 
 85            245          -1.219309     -20.90325     -1.17285 
 90            245          -1.308114     -999          -1.308114
 0             250           6.012993     -2.765689      6.553277
 5             250           6.052905     -2.801083      6.584447
 10            250           6.010634     -2.881515      6.537796
 15            250           5.886624     -3.009741      6.413305
 20            250           5.681112     -3.190426      6.210636
 25            250           5.394385     -3.430212      5.929323
 30            250           5.02719      -3.737847      5.569072
 35            250           4.581309     -4.124468      5.130185
 40            250           4.060334     -4.604119      4.614136
 45            250           3.470665     -5.194661      4.024363
 50            250           2.822749     -5.91935       3.367328
 55            250           2.132449     -6.809611      2.653935
 60            250           1.42233      -7.910084      1.901369
 65            250           .722333      -9.288427      1.135283
 70            250           .069105      -11.05629      .391957 
 75            250          -.496698      -13.4211      -.280676 
 80            250          -.935189      -16.84645     -.82525  
 85            250          -1.212979     -22.80886     -1.183008
 90            250          -1.308114     -999          -1.308114
 0             255           6.252153     -5.186798      6.553277
 5             255           6.288662     -5.222936      6.584958
 10            255           6.242028     -5.304844      6.536006
 15            255           6.112635     -5.435245      6.406547
 20            255           5.900645     -5.618755      6.196427
 25            255           5.606253     -5.861944      5.905425
 30            255           5.230085     -6.173471      5.533589
 35            255           4.773765     -6.564372      5.081716
 40            255           4.24068      -7.048572      4.551995
 45            255           3.636984     -7.643804      3.948885
 50            255           2.972848     -8.37319       3.280259
 55            255           2.263903     -9.268017      2.558861
 60            255           1.532653     -10.37279      1.804047
 65            255           .809371      -11.75502      1.043569
 70            255           .131708      -13.52626      .314854 
 75            255          -.457791      -15.89381     -.335317 
 80            255          -.91652       -19.32119     -.854262 
 85            255          -1.208081     -25.28484     -1.191128
 90            255          -1.308114     -999          -1.308114
 0             260           6.420306     -8.653318      6.553277
 5             260           6.454449     -8.689997      6.585301
 10            260           6.404754     -8.772986      6.534622
 15            260           6.271565     -8.904985      6.401468
 20            260           6.054996     -9.090571      6.185815
 25            260           5.755181     -9.336262      5.887616
 30            260           5.372668     -9.650655      5.507164
 35            260           4.908977     -10.04471      5.045614
 40            260           4.367362     -10.53226      4.505683
 45            260           3.753809     -11.13095      3.892597
 50            260           3.078303     -11.8638       3.215298
 55            260           2.356312     -12.76199      2.487942
 60            260           1.610288     -13.86993      1.731539
 65            260           .870714      -15.25504      .975418 
 70            260           .175916      -17.02877      .257803 
 75            260          -.430255      -19.39835     -.375524 
 80            260          -.903281      -22.82722     -.875484 
 85            260          -1.204603     -28.79179     -1.19704 
 90            260          -1.308114     -999          -1.308114
 0             265           6.520161     -14.6408       6.553277
 5             265           6.552908     -14.67781      6.585498
 10            265           6.501397     -14.76146      6.533748
 15            265           6.365949     -14.89443      6.398318
 20            265           6.146649     -15.08129      6.17926 
 25            265           5.843598     -15.32851      5.876629
 30            265           5.4573       -15.64466      5.490866
 35            265           4.989217     -16.04064      5.023344
 40            265           4.442526     -16.53024      4.477103
 45            265           3.823118     -17.13105      3.857842
 50            265           3.14087      -17.86602      3.175177
 55            265           2.411155     -18.76628      2.444146
 60            265           1.656389     -19.87616      1.686799
 65            265           .907174      -21.26304      .933443 
 70            265           .202223      -23.03829      .222768 
 75            265          -.413847      -25.40911     -.40012  
 80            265          -.895381      -28.83891     -.888413 
 85            265          -1.202525     -34.80403     -1.20063 
 90            265          -1.308114     -999          -1.308114
 0             270           6.553277     -999           6.553277
 5             270           6.585562     -999           6.585562
 10            270           6.533449     -999           6.533449
 15            270           6.39725      -999           6.39725 
 20            270           6.177043     -999           6.177043
 25            270           5.872916     -999           5.872916
 30            270           5.485359     -999           5.485359
 35            270           5.015817     -999           5.015817
 40            270           4.467441     -999           4.467441
 45            270           3.846091     -999           3.846091
 50            270           3.161609     -999           3.161609
 55            270           2.429335     -999           2.429335
 60            270           1.671675     -999           1.671675
 65            270           .919268      -999           .919268 
 70            270           .210954      -999           .210954 
 75            270          -.408397      -999          -.408397 
 80            270          -.892756      -999          -.892756 
 85            270          -1.201834     -999          -1.201834
 90            270          -1.308114     -999          -1.308114
 0             275           6.520161     -14.6408       6.553277
 5             275           6.552908     -14.67781      6.585498
 10            275           6.501397     -14.76146      6.533748
 15            275           6.365949     -14.89443      6.398318
 20            275           6.146649     -15.08129      6.17926 
 25            275           5.843598     -15.32851      5.876629
 30            275           5.4573       -15.64466      5.490866
 35            275           4.989217     -16.04064      5.023344
 40            275           4.442526     -16.53024      4.477103
 45            275           3.823118     -17.13105      3.857842
 50            275           3.14087      -17.86602      3.175177
 55            275           2.411155     -18.76628      2.444146
 60            275           1.656389     -19.87616      1.686799
 65            275           .907174      -21.26304      .933443 
 70            275           .202223      -23.03829      .222768 
 75            275          -.413847      -25.40911     -.40012  
 80            275          -.895381      -28.83891     -.888413 
 85            275          -1.202525     -34.80403     -1.20063 
 90            275          -1.308114     -999          -1.308114
 0             280           6.420306     -8.653318      6.553277
 5             280           6.454449     -8.689997      6.585301
 10            280           6.404754     -8.772986      6.534622
 15            280           6.271565     -8.904985      6.401468
 20            280           6.054996     -9.090571      6.185815
 25            280           5.755181     -9.336262      5.887616
 30            280           5.372668     -9.650655      5.507164
 35            280           4.908977     -10.04471      5.045614
 40            280           4.367362     -10.53226      4.505683
 45            280           3.753809     -11.13095      3.892597
 50            280           3.078303     -11.8638       3.215298
 55            280           2.356312     -12.76199      2.487942
 60            280           1.610288     -13.86993      1.731539
 65            280           .870714      -15.25504      .975418 
 70            280           .175916      -17.02877      .257803 
 75            280          -.430255      -19.39835     -.375524 
 80            280          -.903281      -22.82722     -.875484 
 85            280          -1.204603     -28.79179     -1.19704 
 90            280          -1.308114     -999          -1.308114
 0             285           6.252153     -5.186798      6.553277
 5             285           6.288662     -5.222936      6.584958
 10            285           6.242028     -5.304844      6.536006
 15            285           6.112635     -5.435245      6.406547
 20            285           5.900645     -5.618755      6.196427
 25            285           5.606253     -5.861944      5.905425
 30            285           5.230085     -6.173471      5.533589
 35            285           4.773765     -6.564372      5.081716
 40            285           4.24068      -7.048572      4.551995
 45            285           3.636984     -7.643804      3.948885
 50            285           2.972848     -8.37319       3.280259
 55            285           2.263903     -9.268017      2.558861
 60            285           1.532653     -10.37279      1.804047
 65            285           .809371      -11.75502      1.043569
 70            285           .131708      -13.52626      .314854 
 75            285          -.457791      -15.89381     -.335317 
 80            285          -.91652       -19.32119     -.854262 
 85            285          -1.208081     -25.28484     -1.191128
 90            285          -1.308114     -999          -1.308114
 0             290           6.012993     -2.765689      6.553277
 5             290           6.052905     -2.801083      6.584447
 10            290           6.010634     -2.881515      6.537796
 15            290           5.886624     -3.009741      6.413305
 20            290           5.681112     -3.190426      6.210636
 25            290           5.394385     -3.430212      5.929323
 30            290           5.02719      -3.737847      5.569072
 35            290           4.581309     -4.124468      5.130185
 40            290           4.060334     -4.604119      4.614136
 45            290           3.470665     -5.194661      4.024363
 50            290           2.822749     -5.91935       3.367328
 55            290           2.132449     -6.809611      2.653935
 60            290           1.42233      -7.910084      1.901369
 65            290           .722333      -9.288427      1.135283
 70            290           .069105      -11.05629      .391957 
 75            290          -.496698      -13.4211      -.280676 
 80            290          -.935189      -16.84645     -.82525  
 85            290          -1.212979     -22.80886     -1.183008
 90            290          -1.308114     -999          -1.308114
 0             295           5.698791     -.927758       6.553277
 5             295           5.743244     -.962221       6.58374 
 10            295           5.70673      -1.040819      6.53985 
 15            295           5.589779     -1.166348      6.421403
 20            295           5.392733     -1.343539      6.227824
 25            295           5.116013     -1.579118      5.958329
 30            295           4.760541     -1.881945      5.612185
 35            295           4.328326     -2.263285      5.189073
 40            295           3.823247     -2.737326      4.68959 
 45            295           3.252053     -3.322086      4.115946
 50            295           2.62556      -4.040989      3.472929
 55            295           1.959935     -4.925629      2.769278
 60            295           1.277792     -6.020815      2.019622
 65            295           .608572      -7.394365      1.247091
 70            295          -.012476      -9.158075      .486453 
 75            295          -.547239      -11.51951     -.213236 
 80            295          -.959367      -14.94238     -.789172 
 85            295          -1.219309     -20.90325     -1.17285 
 90            295          -1.308114     -999          -1.308114
 0             300           5.30389       .532677       6.553277
 5             300           5.354176      .499316       6.582802
 10            300           5.32496       .422864       6.541994
 15            300           5.216886      .30048        6.430428
 20            300           5.030444      .127358       6.247237
 25            300           4.766244     -.103332       5.991249
 30            300           4.425453     -.400575       5.661201
 35            300           4.010392     -.775787       5.256043
 40            300           3.525337     -1.243324      4.775362
 45            300           2.977498     -1.821386      4.219984
 50            300           2.378169     -2.53359       3.592844
 55            300           1.743879     -3.411726      2.900311
 60            300           1.097241     -4.500797      2.154207
 65            300           .466957      -5.868808      1.374827
 70            300          -.113612      -7.627725      .595079 
 75            300          -.609617      -9.985269     -.135074 
 80            300          -.98909       -13.40526     -.746984 
 85            300          -1.227069     -19.36437     -1.160886
 90            300          -1.308114     -999          -1.308114
 0             305           4.820567      1.725103      6.553277
 5             305           4.878206      1.692993      6.581593
 10            305           4.858053      1.618948      6.544029
 15            305           4.760907      1.500075      6.439904
 20            305           4.587456      1.331482      6.268012
 25            305           4.338574      1.106227      6.026725
 30            305           4.015763      .815183       5.714171
 35            305           3.621773      .446767       5.328475
 40            305           3.161401     -.013563       4.868116
 45            305           2.642458     -.584211       4.332438
 50            305           2.076825     -1.289005      3.722431
 55            305           1.481426     -2.159952      3.041998
 60            305           .878752      -3.242269      2.300039
 65            305           .296417      -4.604166      1.513821
 70            305          -.234721      -6.357796      .714076 
 75            305          -.683884      -8.711043     -.048669 
 80            305          -1.024298     -12.12786     -.699879 
 85            305          -1.236228     -18.08503     -1.147419
 90            305          -1.308114     -999          -1.308114
 0             310           4.238356      2.714627      6.553277
 5             310           4.305203      2.683895      6.580072
 10            310           4.296226      2.612459      6.545737
 15            310           4.212423      2.49737       6.449312
 20            310           4.054757      2.333644      6.289208
 25            310           3.824458      2.114218      6.063285
 30            310           3.523485      1.82981       5.768993
 35            310           3.155162      1.468661      5.403567
 40            310           2.724968      1.016028      4.964319
 45            310           2.24146       .453291       4.449066
 50            310           1.717208     -.243603       3.856837
 55            310           1.169504     -1.106892      3.189078
 60            310           .62048       -2.182021      2.45177 
 65            310           .096147      -3.537413      1.659081
 70            310          -.3759        -5.285422      .839321 
 75            310          -.769823      -7.634104      .043146 
 80            310          -1.06478      -11.04755     -.649284 
 85            310          -1.246714     -17.00266     -1.132824
 90            310          -1.308114     -999          -1.308114
 0             315           3.542977      3.542977      6.553277
 5             315           3.621395      3.513726      6.578194
 10            315           3.626248      3.445039      6.546889
 15            315           3.558792      3.333907      6.458105
 20            315           3.420362      3.175255      6.309838
 25            315           3.212674      2.961887      6.099391
 30            315           2.938305      2.684367      5.823491
 35            315           2.601329      2.330747      5.478445
 40            315           2.208098      1.886079      5.060372
 45            315           1.768069      1.33152       4.565577
 50            315           1.294547      .642782       3.99118 
 55            315           .805055      -.212608       3.336264
 60            315           .320943      -1.280326      2.603994
 65            315          -.134109      -2.629019      1.805483
 70            315          -.536706      -4.371242      .96646  
 75            315          -.866825      -6.715227      .137266 
 80            315          -1.110127     -10.12521     -.596842 
 85            315          -1.2584       -16.0782      -1.117554
 90            315          -1.308114     -999          -1.308114
 0             320           2.714627      4.238356      6.553277
 5             320           2.807769      4.210662      6.575918
 10            320           2.829968      4.144799      6.547253
 15            320           2.782821      4.037699      6.465727
 20            320           2.668164      3.884188      6.328899
 25            320           2.488371      3.676944      6.133492
 30            320           2.246841      3.406367      5.875487
 35            320           1.948629      3.060326      5.550251
 40            320           1.601157      2.623662      5.152733
 45            320           1.214904      2.077311      4.677779
 50            320           .803854       1.396751      4.120712
 55            320           .385411       .549272       3.478414
 60            320          -.02056       -.511032       2.751424
 65            320          -.393715      -1.853027      1.947937
 70            320          -.715923      -3.589468      1.091054
 75            320          -.973767      -5.928763      .230399 
 80            320          -1.15968      -9.335293     -.544369 
 85            320          -1.271096     -15.28616     -1.102129
 90            320          -1.308114     -999          -1.308114
 0             325           1.725103      4.820567      6.553277
 5             325           1.837393      4.794479      6.573202
 10            325           1.881881      4.73145       6.546603
 15            325           1.86061       4.628352      6.471632
 20            325           1.776088      4.479917      6.345408
 25            325           1.631578      4.278692      6.164072
 30            325           1.431567      4.014924      5.922864
 35            325           1.182342      3.676298      5.616233
 40            325           .892585       3.247453      5.238011
 45            325           .573807       2.709106      4.781689
 50            325           .240378       2.036511      4.240945
 55            325          -.09111        1.19673       3.610672
 60            325          -.403375       .143632       2.889035
 65            325          -.680695      -1.191859      2.081539
 70            325          -.9113        -2.92269       1.208723
 75            325          -1.088894     -5.257436      .319181 
 80            325          -1.212496     -8.660614     -.493804 
 85            325          -1.284543     -14.60943     -1.087125
 90            325          -1.308114     -999          -1.308114
 0             330           .532677       5.30389       6.553277
 5             330           .670704       5.27943       6.570013
 10            330           .744906       5.219182      6.544728
 15            330           .757889       5.119957      6.4753  
 20            330           .713065       4.976396      6.35843 
 25            330           .614883       4.780928      6.189695
 30            330           .469228       4.523647      5.963625
 35            330           .283871       4.192068      5.673811
 40            330           .068819       3.770638      5.313054
 45            330          -.163652       3.23987       4.873623
 50            330          -.399516       2.574804      4.347743
 55            330          -.624235       1.74229       3.728565
 60            330          -.824669       .695988       3.012178
 65            330          -.991199      -.633375       2.201697
 70            330          -1.11929      -2.358925      1.315273
 75            330          -1.209737     -4.689391      .400291 
 80            330          -1.267335     -8.089419     -.447134 
 85            330          -1.29841      -14.03631     -1.073151
 90            330          -1.308114     -999          -1.308114
 0             335          -.927758       5.698791      6.553277
 5             335          -.753427       5.675958      6.566322
 10            335          -.63746        5.618375      6.541437
 15            335          -.576579       5.5228        6.476258
 20            335          -.566192       5.38379       6.367106
 25            335          -.600321       5.193662      6.209041
 30            335          -.671386       4.942373      5.995948
 35            335          -.77004        4.617281      5.72064 
 40            335          -.885255       4.20266       5.375011
 45            335          -1.004858      3.678836      4.950269
 50            335          -1.116672      3.020657      4.437398
 55            335          -1.210178      2.194779      3.828083
 60            335          -1.27833       1.154676      3.116668
 65            335          -1.318915     -.169103       2.304232
 70            335          -1.334833     -1.889845      1.406821
 75            335          -1.333074     -4.216418      .470571 
 80            335          -1.322677     -7.613581     -.406308 
 85            335          -1.312308     -13.55871     -1.060825
 90            335          -1.308114     -999          -1.308114
 0             340          -2.765689      6.012993      6.553277
 5             340          -2.536374      5.99176       6.56211 
 10            340          -2.357015      5.936671      6.536567
 15            340          -2.223748      5.844436      6.474092
 20            340          -2.130603      5.709539      6.37068 
 25            340          -2.069843      5.524196      6.220947
 30            340          -2.032196      5.278248      6.018221
 35            340          -2.007248      4.958912      5.754656
 40            340          -1.984192      4.550311      5.42138 
 45            340          -1.953012      4.032609      5.008728
 50            340          -1.906003      3.380489      4.506674
 55            340          -1.839248      2.56044       3.90573 
 60            340          -1.753563      1.525772      3.198845
 65            340          -1.654484      .206882       2.385467
 70            340          -1.551241     -1.509653      1.479903
 75            340          -1.45498      -3.832823      .527145 
 80            340          -1.376766     -7.227483     -.373153 
 85            340          -1.3258       -13.17109     -1.050738
 90            340          -1.308114     -999          -1.308114
 0             345          -5.186798      6.252153      6.553277
 5             345          -4.864436      6.232469      6.557367
 10            345          -4.576955      6.179653      6.529993
 15            345          -4.32114       6.090374      6.468461
 20            345          -4.090265      5.959052      6.368519
 25            345          -3.875527      5.777822      6.224431
 30            345          -3.667272      5.536424      6.029085
 35            345          -3.456293      5.221963      5.774115
 40            345          -3.235251      4.818437      5.450051
 45            345          -3.000058      4.305877      5.046557
 50            345          -2.750874      3.65883       4.552849
 55            345          -2.492405      2.843648      3.958562
 60            345          -2.233344      1.81351       3.255624
 65            345          -1.985114      .498689       2.442285
 70            345          -1.760274     -1.214352      1.531559
 75            345          -1.570973     -3.534697      .567523 
 80            345          -1.427699     -6.927281     -.349275 
 85            345          -1.338429     -12.86961     -1.043422
 90            345          -1.308114     -999          -1.308114
 0             350          -8.653318      6.420306      6.553277
 5             350          -8.139778      6.402102      6.552096
 10            350          -7.628126      6.351297      6.521629
 15            350          -7.124508      6.264525      6.459113
 20            350          -6.627212      6.136158      6.360134
 25            350          -6.131408      5.958269      6.218721
 30            350          -5.632428      5.72052       6.02746 
 35            350          -5.12797       5.409933      5.777621
 40            350          -4.61934       5.010409      5.45933 
 45            350          -4.111782      4.50188       5.061795
 50            350          -3.613991      3.858792      4.573731
 55            350          -3.137065      3.047393      3.984213
 60            350          -2.693234      2.020765      3.284527
 65            350          -2.29466       .709089       2.472186
 70            350          -1.952498     -1.001255      1.559416
 75            350          -1.676277     -3.319424      .589701 
 80            350          -1.47355      -6.710411     -.335978 
 85            350          -1.349744     -12.65177     -1.039311
 90            350          -1.308114     -999          -1.308114
 0             355          -14.6408       6.520161      6.553277
 5             355          -13.5221       6.50335       6.546312
 10            355          -12.32248      6.454258      6.511438
 15            355          -11.1395       6.369496      6.44589 
 20            355          -10.00626      6.243403      6.345196
 25            355          -8.930043      6.068007      6.203276
 30            355          -7.910728      5.832925      6.012566
 35            355          -6.947983      5.525117      5.764155
 40            355          -6.043467      5.128427      5.447963
 45            355          -5.200957      4.622723      5.052978
 50            355          -4.425748      3.982384      4.567682
 55            355          -3.723893      3.173594      3.980912
 60            355          -3.10156       2.149373      3.283706
 65            355          -2.56455       .839843       2.473324
 70            355          -2.117999     -.868667       1.561737
 75            355          -1.766197     -3.185361      .592233 
 80            355          -1.512506     -6.575267     -.334191 
 85            355          -1.359332     -12.51596     -1.038711
 90            355          -1.308114     -999          -1.308114
 0             360          -999           6.553277      6.553277
 5             360          -26.24685      6.537755      6.540042
 10            360          -20.16381      6.490056      6.49943 
 15            360          -16.54248      6.406774      6.42874 
 20            360          -13.91362      6.28223       6.323547
 25            360          -11.82322      6.108434      6.1778  
 30            360          -10.0752       5.874978      5.983948
 35            360          -8.570497      5.568799      5.73309 
 40            360          -7.254715      5.173715      5.415158
 45            360          -6.096681      4.669568      5.019161
 50            360          -5.078227      4.030709      4.533632
 55            360          -4.188803      3.223298      3.947502
 60            360          -3.422419      2.200328      3.251968
 65            360          -2.775836      .8919         2.444533
 70            360          -2.247445     -.815679       1.537475
 75            360          -1.836571     -3.13163       .574295 
 80            360          -1.54303      -6.520994     -.344415 
 85            360          -1.366851     -12.46136     -1.04178 
 90            360          -1.308114     -999          -1.308114