                   ****************************************
                     MINI-NUMERICAL ELECTROMAGNETICS CODE
                                   MININEC
                   ****************************************

FREQUENCY (MHZ): 299.8
    WAVE LENGTH =  1  METERS

ENVIRONMENT (+1 FOR FREE SPACE, -1 FOR GROUND PLANE): -1
 NUMBER OF MEDIA (0 FOR PERFECTLY CONDUCTING GROUND):  0

NO. OF WIRES: 2

WIRE NO. 1
            COORDINATES                                 END         NO. OF
   X             Y             Z          RADIUS     CONNECTION     SEGMENTS
 0             0             0                         -1
 0             0             .191          .004         0              4

WIRE NO. 2
            COORDINATES                                 END         NO. OF
   X             Y             Z          RADIUS     CONNECTION     SEGMENTS
 0             0             .191                       1
 0             .309          .191          .004         0              6

                  **** ANTENNA GEOMETRY ****

WIRE NO.  1  COORDINATES                                CONNECTION PULSE
X             Y             Z             RADIUS        END1 END2  NO.
 0             0             0             .004         -1    1   1
 0             0             .04775        .004          1    1   2
 0             0             .0955         .004          1    1   3
 0             0             .14325        .004          1    0   4

WIRE NO.  2  COORDINATES                                CONNECTION PULSE
X             Y             Z             RADIUS        END1 END2  NO.
 0             0             .191          .004          1    2   5
 0             .0515         .191          .004          2    2   6
 0             .103          .191          .004          2    2   7
 0             .1545         .191          .004          2    2   8
 0             .206          .191          .004          2    2   9
 0             .2575         .191          .004          2    0  10

NO. OF SOURCES :  1
PULSE NO., VOLTAGE MAGNITUDE, PHASE (DEGREES):  1 , 1 , 0
NUMBER OF LOADS 0

********************    SOURCE DATA     ********************
PULSE  1      VOLTAGE = ( 1 , 0 J)
              CURRENT = ( 9.852265E-04 ,  1.479976E-03 J)
              IMPEDANCE = ( 311.6818 , -468.1986 J)
              POWER =  4.926132E-04  WATTS

********************    CURRENT DATA    ********************

WIRE NO.  1 :
PULSE         REAL          IMAGINARY     MAGNITUDE     PHASE
 NO.          (AMPS)        (AMPS)        (AMPS)        (DEGREES)
 1             9.852265E-04  1.479976E-03  1.777920E-03  56.34812 
 2             9.619987E-04 -7.880559E-04  1.243573E-03 -39.32386 
 3             8.940952E-04 -2.186393E-03  2.362144E-03 -67.75857 
 4             7.867734E-04 -3.248649E-03  3.342564E-03 -76.38596 
J              6.457146E-04 -3.943690E-03  3.996203E-03 -80.70126 
WIRE NO.  2 :
PULSE         REAL          IMAGINARY     MAGNITUDE     PHASE
 NO.          (AMPS)        (AMPS)        (AMPS)        (DEGREES)
J              6.457146E-04 -3.943690E-03  3.996203E-03 -80.70126 
 6             5.160319E-04 -4.466379E-03  4.496091E-03 -83.40944 
 7             3.756798E-04 -4.519855E-03  4.535440E-03 -85.24863 
 8             2.408051E-04 -4.093049E-03  4.100127E-03 -86.63302 
 9             1.252213E-04 -3.201489E-03  3.203937E-03 -87.76011 
 10            4.121437E-05 -1.891712E-03  1.892161E-03 -88.75191 
E              0             0             0             0

********************     FAR FIELD      ********************

ZENITH ANGLE : INITIAL,INCREMENT,NUMBER: 0 , 5 , 19
AZIMUTH ANGLE: INITIAL,INCREMENT,NUMBER: 0 , 5 , 73

********************    PATTERN DATA    ********************
ZENITH        AZIMUTH       VERTICAL      HORIZONTAL    TOTAL
 ANGLE         ANGLE        PATTERN (DB)  PATTERN (DB)  PATTERN (DB)
 0             0            -999           6.553224      6.553224
 5             0            -26.24691      6.537702      6.539989
 10            0            -20.16387      6.490002      6.499376
 15            0            -16.54253      6.40672       6.428687
 20            0            -13.91367      6.282177      6.323494
 25            0            -11.82327      6.108381      6.177747
 30            0            -10.07525      5.874924      5.983894
 35            0            -8.57055       5.568746      5.733037
 40            0            -7.254768      5.173662      5.415104
 45            0            -6.096734      4.669515      5.019108
 50            0            -5.078281      4.030656      4.533579
 55            0            -4.188856      3.223244      3.947448
 60            0            -3.422472      2.200275      3.251915
 65            0            -2.775889      .891847       2.444479
 70            0            -2.247498     -.815733       1.537422
 75            0            -1.836624     -3.131683      .574242 
 80            0            -1.543083     -6.521047     -.344468 
 85            0            -1.366905     -12.46142     -1.041834
 90            0            -1.308167     -999          -1.308167
 0             5            -14.64086      6.520108      6.553224
 5             5            -15.46332      6.505764      6.533274
 10            5            -15.67444      6.459121      6.485612
 15            5            -15.08672      6.376771      6.407666
 20            5            -13.85842      6.253033      6.295158
 25            5            -12.32317      6.07992       6.142201
 30            5            -10.73365      5.847029      5.941432
 35            5            -9.216056      5.541305      5.684157
 40            5            -7.820406      5.146575      5.36054 
 45            5            -6.562506      4.642693      4.959875
 50            5            -5.444924      4.004023      4.471036
 55            5            -4.465845      3.196737      3.883396
 60            5            -3.622492      2.173844      3.188733
 65            5            -2.912333      .865456       2.385301
 70            5            -2.333397     -.842109       1.486245
 75            5            -1.884281     -3.158059      .535663 
 80            5            -1.564046     -6.54743      -.366738 
 85            5            -1.372112     -12.4878      -1.048565
 90            5            -1.308167     -999          -1.308167
 0             10           -8.653372      6.420253      6.553224
 5             10           -9.148176      6.406965      6.526171
 10            10           -9.581194      6.361039      6.470206
 15            10           -9.88186       6.279073      6.382942
 20            10           -9.960424      6.155401      6.260342
 25            10           -9.740478      5.98206       6.096817
 30            10           -9.203771      5.74868       5.885354
 35            10           -8.406788      5.442246      5.617667
 40            10           -7.450446      5.046631      5.284389
 45            10           -6.43569       4.541736      4.875358
 50            10           -5.439179      3.901978      4.380105
 55            10           -4.510742      3.093581      3.788809
 60            10           -3.680026      2.069603      3.094267
 65            10           -2.963801      .760206       2.296001
 70            10           -2.37128      -.94825        1.40856 
 75            10           -1.90742      -3.264936      .476949 
 80            10           -1.57484      -6.654854     -.400619 
 85            10           -1.374881     -12.59557     -1.058787
 90            10           -1.308167     -999          -1.308167
 0             15           -5.186852      6.252099      6.553224
 5             15           -5.541781      6.239744      6.518745
 10            15           -5.918375      6.194201      6.453324
 15            15           -6.292968      6.112085      6.354795
 20            15           -6.624851      5.987763      6.219443
 25            15           -6.855489      5.813316      6.042094
 30            15           -6.917641      5.578434      5.816245
 35            15           -6.758335      5.270172      5.534209
 40            15           -6.366051      4.87248       5.187323
 45            15           -5.780104      4.365346      4.76625 
 50            15           -5.073016      3.723274      4.261501
 55            15           -4.322444      2.912577      3.664453
 60            15           -3.592511      1.886399      2.969377
 65            15           -2.9287        .574984       2.177582
 70            15           -2.360462     -1.135233      1.305518
 75            15           -1.905833     -3.453358      .399272 
 80            15           -1.575429     -6.844344     -.445223 
 85            15           -1.375209     -12.78571     -1.072173
 90            15           -1.308167     -999          -1.308167
 0             20           -2.765743      6.01294       6.553224
 5             20           -3.046075      6.001391      6.511078
 10            20           -3.374319      5.955914      6.43518 
 15            20           -3.740902      5.873148      6.323613
 20            20           -4.126469      5.747505      6.173041
 25            20           -4.498161      5.571133      5.978806
 30            20           -4.807783      5.333805      5.735049
 35            20           -4.996401      5.022673      5.434869
 40            20           -5.00979       4.621797      5.070537
 45            20           -4.821439      4.111282      4.633826
 50            20           -4.447993      3.465754      4.116576
 55            20           -3.943442      2.651651      3.511772
 60            20           -3.377361      1.622237      2.815644
 65            20           -2.814336      .307867       2.031798
 70            20           -2.304134     -1.40492       1.179005
 75            20           -1.880911     -3.725143      .30444  
 80            20           -1.566343     -7.11768      -.499246 
 85            20           -1.373221     -13.06        -1.088263
 90            20           -1.308167     -999          -1.308167
 0             25           -.927811       5.698738      6.553224
 5             25           -1.162255      5.687871      6.50326 
 10            25           -1.456326      5.642167      6.416035
 15            25           -1.805931      5.558295      6.289887
 20            25           -2.201108      5.430727      6.121896
 25            25           -2.622874      5.251694      5.90799 
 30            25           -3.03979       5.011072      5.643069
 35            25           -3.406323      4.696137      5.321182
 40            25           -3.66705       4.291084      4.935756
 45            25           -3.770552      3.776166      4.479963
 50            25           -3.690258      3.126162      3.947339
 55            25           -3.439155      2.307663      3.332917
 60            25           -3.065784      1.274081      2.635388
 65            25           -2.635046     -.044084       1.861153
 70            25           -2.208759     -1.760169      1.031626
 75            25           -1.835441     -4.083078      .194851 
 80            25           -1.548619     -7.477601     -.56104  
 85            25           -1.369149     -13.42114     -1.106494
 90            25           -1.308167     -999          -1.308167
 0             30            .532624       5.303836      6.553224
 5             30            .328992       5.293534      6.49539 
 10            30            .059201       5.247341      6.396189
 15            30           -.275166       5.161967      6.254201
 20            30           -.668805       5.031953      6.066934
 25            30           -1.110247      4.849627      5.830941
 30            30           -1.578657      4.604986      5.541964
 35            30           -2.040695      4.285449      5.195136
 40            30           -2.449765      3.875371      4.785248
 45            30           -2.751678      3.355177      4.307162
 50            30           -2.899617      2.699823      3.756486
 55            30           -2.873953      1.876079      3.130771
 60            30           -2.693577      .837535       2.431688
 65            30           -2.408975     -.485147       1.668906
 70            30           -2.08298      -2.20515       .866665 
 75            30           -1.773244     -4.531252      .073405 
 80            30           -1.523686     -7.928134     -.628689 
 85            30           -1.363317     -13.87312     -1.126236
 90            30           -1.308167     -999          -1.308167
 0             35            1.72505       4.820514      6.553224
 5             35            1.54332       4.810667      6.487576
 10            35            1.291159      4.763764      6.375976
 15            35            .968865       4.676561      6.217221
 20            35            .579217       4.543678      6.009232
 25            35            .129368       4.357548      5.74919 
 30            35           -.366438       4.108305      5.433729
 35            35           -.883616       3.783526      5.059166
 40            35           -1.38468       3.367745      4.621836
 45            35           -1.820252      2.841574      4.118568
 50            35           -2.13762       2.180171      3.547428
 55            35           -2.297823      1.350505      2.90898 
 60            35           -2.293608      .30636        2.208402
 65            35           -2.154818     -1.021416      1.459052
 70            35           -1.936374     -2.745839      .688026 
 75            35           -1.698732     -5.075539     -.056584 
 80            35           -1.493232     -8.47508      -.70011  
 85            35           -1.35611      -14.4217      -1.146834
 90            35           -1.308167     -999          -1.308167
 0             40            2.714574      4.238303      6.553224
 5             40            2.549024      4.22881       6.47993 
 10            40            2.309896      4.181021      6.355759
 15            40            1.996795      4.091743      6.179683
 20            40            1.611032      3.955674      5.949995
 25            40            1.157149      3.765368      5.664485
 30            40            .64519        3.5111        5.320678
 35            40            .093697       3.180617      4.91614 
 40            40           -.467193       2.758642      4.448891
 45            40           -.994451       2.225992      3.917981
 50            40           -1.436164      1.558036      3.324321
 55            40           -1.744055      .721957       2.67198 
 60            40           -1.892015     -.328249       1.970174
 65            40           -1.889444     -1.661537      1.236304
 70            40           -1.778353     -3.390741      .500155 
 75            40           -1.616482     -5.724334     -.191516 
 80            40           -1.45906      -9.126752     -.773148 
 85            40           -1.347946     -15.07514     -1.167636
 90            40           -1.308167     -999          -1.308167
 0             45            3.542924      3.542924      6.553224
 5             45            3.389643      3.533696      6.472566
 10            45            3.160269      3.484895      6.335915
 15            45            2.854022      3.393377      6.142367
 20            45            2.471326      3.253928      5.890531
 25            45            2.015074      3.059218      5.57875 
 30            45            1.492556      2.799674      5.205406
 35            45            .918138       2.463215      4.769328
 40            45            .3164         2.03476       4.270319
 45            45           -.275492       1.495337      3.709861
 50            45           -.808945       .820535       3.092073
 55            45           -1.232359     -.022241       2.425013
 60            45           -1.507535     -1.078777      1.722433
 65            45           -1.62669      -2.417821      1.006034
 70            45           -1.617391     -4.152018      .307937 
 75            45           -1.530874     -6.489676     -.32763  
 80            45           -1.422963     -9.895099     -.845682 
 85            45           -1.339247     -15.84533     -1.188032
 90            45           -1.308167     -999          -1.308167
 0             50            4.238303      2.714574      6.553224
 5             50            4.094483      2.705534      6.4656  
 10            50            3.87246       2.655646      6.31683 
 15            50            3.571236      2.561813      6.106086
 20            50            3.190687      2.418909      5.83222 
 25            50            2.732636      2.219723      5.494047
 30            50            2.202522      1.954829      5.090741
 35            50            1.611791      1.612321      4.622356
 40            50            .980901       1.177313      4.090517
 45            50            .342155       .631044       3.499301
 50            50           -.259764      -.050677       2.856338
 55            50           -.773083      -.900221       2.174113
 60            50           -1.152508     -1.963153      1.471356
 65            50           -1.37707      -3.308014      .774201 
 70            50           -1.460604     -5.047258      .11656  
 75            50           -1.445839     -7.389027     -.461146 
 80            50           -1.386617     -10.79749     -.915706 
 85            50           -1.33042      -16.74958     -1.207476
 90            50           -1.308167     -999          -1.308167
 0             55            4.820514      1.72505       6.553224
 5             55            4.684059      1.716137      6.459143
 10            55            4.467582      1.665136      6.298891
 15            55            4.169972      1.569003      6.071659
 20            55            3.79076       1.422694      5.77647 
 25            55            3.331061      1.219111      5.412519
 30            55            2.795048      .948972       4.979671
 35            55            2.192104      .600542       4.479126
 40            55            1.539644      .159121       3.914308
 45            55            .866108      -.393845       3.291963
 50            55            .212495      -1.082333      2.623459
 55            55           -.370714      -1.938497      1.926059
 60            55           -.834416      -3.007688      1.223795
 65            55           -1.148084     -4.358241      .547227 
 70            55           -1.313629     -6.102424     -.06863  
 75            55           -1.364722     -8.448217     -.588402 
 80            55           -1.351515     -11.85965     -.981403 
 85            55           -1.321832     -17.81357     -1.225497
 90            55           -1.308167     -999          -1.308167
 0             60            5.303836      .532624       6.553224
 5             60            5.173124      .523787       6.453302
 10            60            4.960819      .471702       6.282467
 15            60            4.665753      .373369       6.039887
 20            60            4.287241      .223823       5.724682
 25            60            3.825927      .016073       5.336328
 30            60            3.285108     -.259028       4.875264
 35            60            2.672695     -.613059       4.343717
 40            60            2.003863     -1.060541      3.746816
 45            60            1.304059     -1.619837      3.093965
 50            60            .611109      -2.314722      2.400361
 55            60           -.026324      -3.177144      1.688252
 60            60           -.557347      -4.252252      .987137 
 65            60           -.944756      -5.608189      .331828 
 70            60           -1.180706     -7.357046     -.242311 
 75            60           -1.290231     -9.706646     -.705976 
 80            60           -1.318924     -13.12089     -1.041191
 85            60           -1.313807     -19.07654     -1.241713
 90            60           -1.308167     -999          -1.308167
 0             65            5.698738     -.927811       6.553224
 5             65            5.572476     -.936608       6.448176
 10            65            5.36328      -.989703       6.267908
 15            65            5.069958     -1.090053      6.011531
 20            65            4.691691     -1.242554      5.6782  
 25            65            4.228809     -1.4541        5.267581
 30            65            3.684001     -1.733717      4.780559
 35            65            3.064131     -2.092842      4.220243
 40            65            2.382727     -2.545836      3.593308
 45            65            1.662958     -3.110888      2.911687
 50            65            .940059      -3.81159       2.194346
 55            65            .260839      -4.679704      1.468508
 60            65           -.323173      -5.760196      .769084 
 65            65           -.770241      -7.121033      .134799 
 70            65           -1.064873     -8.874143     -.39936  
 75            65           -1.224467     -11.22721     -.81079  
 80            65           -1.289873     -14.64402     -1.093751
 85            65           -1.306612     -20.60124     -1.255822
 90            65           -1.308167     -999          -1.308167
 0             70            6.01294      -2.765743      6.553224
 5             70            5.890067     -2.774525      6.443853
 10            70            5.683147     -2.828511      6.255528
 15            70            5.390982     -2.930622      5.987286
 20            70            5.012673     -3.085693      5.638267
 25            70            4.548342     -3.300536      5.20825 
 30            70            4.00026      -3.584072      4.698451
 35            70            3.374546     -3.947617      4.112685
 40            70            2.68354      -4.405392      3.45897 
 45            70            1.94871      -4.975437      2.751517
 50            70            1.203267     -5.681186      2.012799
 55            70            .492366      -6.55424       1.274746
 60            70           -.132423      -7.639405      .577342 
 65            70           -.626365      -9.004495     -.037272 
 70            70           -.968201      -10.7613      -.535052 
 75            70           -1.16899      -13.11738     -.900185 
 80            70           -1.265168     -16.53641     -1.138026
 85            70           -1.300464     -22.495       -1.267602
 90            70           -1.308167     -999          -1.308167
 0             75            6.252099     -5.186852      6.553224
 5             75            6.131717     -5.195634      6.440408
 10            75            5.926409     -5.250355      6.2456  
 15            75            5.63498      -5.353906      5.967755
 20            75            5.256486     -5.511074      5.605978
 25            75            4.790913     -5.728604      5.160097
 30            75            4.240248     -6.015332      4.631552
 35            75            3.610099     -6.382475      4.024701
 40            75            2.911967     -6.844143      3.348641
 45            75            2.166099     -7.418254      2.619499
 50            75            1.404196     -8.128114      1.862784
 55            75            .670082      -9.005191      1.114553
 60            75            .015104      -10.09416      .419211 
 65            75           -.514073      -11.46272     -.178317 
 70            75           -.892031      -13.22253     -.645236 
 75            75           -1.124905     -15.58107     -.971973 
 80            75           -1.245408     -19.00192     -1.173211
 85            75           -1.295527     -24.96162     -1.276895
 90            75           -1.308167     -999          -1.308167
 0             80            6.420253     -8.653372      6.553224
 5             80            6.301577     -8.662161      6.437902
 10            80            6.097338     -8.717429      6.238345
 15            80            5.806349     -8.822047      5.953435
 20            80            5.42764      -8.980767      5.582234
 25            80            4.961113     -9.200283      5.124586
 30            80            4.408575     -9.48937       4.58207 
 35            80            3.775298     -9.859173      3.959417
 40            80            3.072231     -10.32372      3.266516
 45            80            2.318796     -10.90083      2.520947
 50            80            1.545657     -11.61373      1.750566
 55            80            .795671      -12.49378      .99467  
 60            80            .119916      -13.58557      .30111  
 65            80           -.433773      -14.95669     -.283133 
 70            80           -.837183      -16.71873     -.726499 
 75            80           -1.09296      -19.07908     -1.024452
 80            80           -1.23102      -22.50127     -1.198724
 85            80           -1.291921     -28.4618      -1.283596
 90            80           -1.308167     -999          -1.308167
 0             85            6.520108     -14.64086      6.553224
 5             85            6.402428     -14.64965      6.436381
 10            85            6.198799     -14.70526      6.233925
 15            85            5.90804      -14.81053      5.944692
 20            85            5.529169     -14.97021      5.567709
 25            85            5.062042     -15.19094      5.102821
 30            85            4.508365     -15.48147      4.55168 
 35            85            3.873223     -15.85291      3.919235
 40            85            3.167249     -16.31922      3.215856
 45            85            2.40939      -16.89818      2.46003 
 50            85            1.629703     -17.61294      1.681101
 55            85            .870462      -18.49481      .920437 
 60            85            .182545      -19.58833      .228087 
 65            85           -.385588      -20.96102     -.347714 
 70            85           -.804122      -22.72443     -.776302 
 75            85           -1.073624     -25.08589     -1.056418
 80            85           -1.222283     -28.50891     -1.214178
 85            85           -1.289726     -34.46994     -1.287639
 90            85           -1.308167     -999          -1.308167
 0             90            6.553224     -999           6.553224
 5             90            6.43587      -999           6.43587 
 10            90            6.23244      -999           6.23244 
 15            90            5.941752     -999           5.941752
 20            90            5.562821     -999           5.562821
 25            90            5.095489     -999           5.095489
 30            90            4.541431     -999           4.541431
 35            90            3.905669     -999           3.905669
 40            90            3.198733     -999           3.198733
 45            90            2.439417     -999           2.439417
 50            90            1.657579     -999           1.657579
 55            90            .895297      -999           .895297 
 60            90            .203375      -999           .203375 
 65            90           -.369529      -999          -.369529 
 70            90           -.793079      -999          -.793079 
 75            90           -1.067152     -999          -1.067152
 80            90           -1.219353     -999          -1.219353
 85            90           -1.28899      -999          -1.28899 
 90            90           -1.308167     -999          -1.308167
 0             95            6.520108     -14.64086      6.553224
 5             95            6.402428     -14.64965      6.436381
 10            95            6.198799     -14.70526      6.233925
 15            95            5.90804      -14.81053      5.944692
 20            95            5.529169     -14.97021      5.567709
 25            95            5.062042     -15.19094      5.102821
 30            95            4.508365     -15.48147      4.55168 
 35            95            3.873223     -15.85291      3.919235
 40            95            3.167249     -16.31922      3.215856
 45            95            2.40939      -16.89818      2.46003 
 50            95            1.629703     -17.61294      1.681101
 55            95            .870462      -18.49481      .920437 
 60            95            .182545      -19.58833      .228087 
 65            95           -.385588      -20.96102     -.347714 
 70            95           -.804122      -22.72443     -.776302 
 75            95           -1.073624     -25.08589     -1.056418
 80            95           -1.222283     -28.50891     -1.214178
 85            95           -1.289726     -34.46994     -1.287639
 90            95           -1.308167     -999          -1.308167
 0             100           6.420253     -8.653372      6.553224
 5             100           6.301577     -8.662161      6.437902
 10            100           6.097338     -8.717429      6.238345
 15            100           5.806349     -8.822047      5.953435
 20            100           5.42764      -8.980767      5.582234
 25            100           4.961113     -9.200283      5.124586
 30            100           4.408575     -9.48937       4.58207 
 35            100           3.775298     -9.859173      3.959417
 40            100           3.072231     -10.32372      3.266516
 45            100           2.318796     -10.90083      2.520947
 50            100           1.545657     -11.61373      1.750566
 55            100           .795671      -12.49378      .99467  
 60            100           .119916      -13.58557      .30111  
 65            100          -.433773      -14.95669     -.283133 
 70            100          -.837183      -16.71873     -.726499 
 75            100          -1.09296      -19.07908     -1.024452
 80            100          -1.23102      -22.50127     -1.198724
 85            100          -1.291921     -28.4618      -1.283596
 90            100          -1.308167     -999          -1.308167
 0             105           6.252099     -5.186852      6.553224
 5             105           6.131717     -5.195634      6.440408
 10            105           5.926409     -5.250355      6.2456  
 15            105           5.63498      -5.353906      5.967755
 20            105           5.256486     -5.511074      5.605978
 25            105           4.790913     -5.728604      5.160097
 30            105           4.240248     -6.015332      4.631552
 35            105           3.610099     -6.382475      4.024701
 40            105           2.911967     -6.844143      3.348641
 45            105           2.166099     -7.418254      2.619499
 50            105           1.404196     -8.128114      1.862784
 55            105           .670082      -9.005191      1.114553
 60            105           .015104      -10.09416      .419211 
 65            105          -.514073      -11.46272     -.178317 
 70            105          -.892031      -13.22253     -.645236 
 75            105          -1.124905     -15.58107     -.971973 
 80            105          -1.245408     -19.00192     -1.173211
 85            105          -1.295527     -24.96162     -1.276895
 90            105          -1.308167     -999          -1.308167
 0             110           6.01294      -2.765743      6.553224
 5             110           5.890067     -2.774525      6.443853
 10            110           5.683147     -2.828511      6.255528
 15            110           5.390982     -2.930622      5.987286
 20            110           5.012673     -3.085693      5.638267
 25            110           4.548342     -3.300536      5.20825 
 30            110           4.00026      -3.584072      4.698451
 35            110           3.374546     -3.947617      4.112685
 40            110           2.68354      -4.405392      3.45897 
 45            110           1.94871      -4.975437      2.751517
 50            110           1.203267     -5.681186      2.012799
 55            110           .492366      -6.55424       1.274746
 60            110          -.132423      -7.639405      .577342 
 65            110          -.626365      -9.004495     -.037272 
 70            110          -.968201      -10.7613      -.535052 
 75            110          -1.16899      -13.11738     -.900185 
 80            110          -1.265168     -16.53641     -1.138026
 85            110          -1.300464     -22.495       -1.267602
 90            110          -1.308167     -999          -1.308167
 0             115           5.698738     -.927811       6.553224
 5             115           5.572476     -.936608       6.448176
 10            115           5.36328      -.989703       6.267908
 15            115           5.069958     -1.090053      6.011531
 20            115           4.691691     -1.242554      5.6782  
 25            115           4.228809     -1.4541        5.267581
 30            115           3.684001     -1.733717      4.780559
 35            115           3.064131     -2.092842      4.220243
 40            115           2.382727     -2.545836      3.593308
 45            115           1.662958     -3.110888      2.911687
 50            115           .940059      -3.81159       2.194346
 55            115           .260839      -4.679704      1.468508
 60            115          -.323173      -5.760196      .769084 
 65            115          -.770241      -7.121033      .134799 
 70            115          -1.064873     -8.874143     -.39936  
 75            115          -1.224467     -11.22721     -.81079  
 80            115          -1.289873     -14.64402     -1.093751
 85            115          -1.306612     -20.60124     -1.255822
 90            115          -1.308167     -999          -1.308167
 0             120           5.303836      .532624       6.553224
 5             120           5.173124      .523787       6.453302
 10            120           4.960819      .471702       6.282467
 15            120           4.665753      .373369       6.039887
 20            120           4.287241      .223823       5.724682
 25            120           3.825927      .016073       5.336328
 30            120           3.285108     -.259028       4.875264
 35            120           2.672695     -.613059       4.343717
 40            120           2.003863     -1.060541      3.746816
 45            120           1.304059     -1.619837      3.093965
 50            120           .611109      -2.314722      2.400361
 55            120          -.026324      -3.177144      1.688252
 60            120          -.557347      -4.252252      .987137 
 65            120          -.944756      -5.608189      .331828 
 70            120          -1.180706     -7.357046     -.242311 
 75            120          -1.290231     -9.706646     -.705976 
 80            120          -1.318924     -13.12089     -1.041191
 85            120          -1.313807     -19.07654     -1.241713
 90            120          -1.308167     -999          -1.308167
 0             125           4.820514      1.72505       6.553224
 5             125           4.684059      1.716137      6.459143
 10            125           4.467582      1.665136      6.298891
 15            125           4.169972      1.569003      6.071659
 20            125           3.79076       1.422694      5.77647 
 25            125           3.331061      1.219111      5.412519
 30            125           2.795048      .948972       4.979671
 35            125           2.192104      .600542       4.479126
 40            125           1.539644      .159121       3.914308
 45            125           .866108      -.393845       3.291963
 50            125           .212495      -1.082333      2.623459
 55            125          -.370714      -1.938497      1.926059
 60            125          -.834416      -3.007688      1.223795
 65            125          -1.148084     -4.358241      .547227 
 70            125          -1.313629     -6.102424     -.06863  
 75            125          -1.364722     -8.448217     -.588402 
 80            125          -1.351515     -11.85965     -.981403 
 85            125          -1.321832     -17.81357     -1.225497
 90            125          -1.308167     -999          -1.308167
 0             130           4.238303      2.714574      6.553224
 5             130           4.094483      2.705534      6.4656  
 10            130           3.87246       2.655646      6.31683 
 15            130           3.571236      2.561813      6.106086
 20            130           3.190687      2.418909      5.83222 
 25            130           2.732636      2.219723      5.494047
 30            130           2.202522      1.954829      5.090741
 35            130           1.611791      1.612321      4.622356
 40            130           .980901       1.177313      4.090517
 45            130           .342155       .631044       3.499301
 50            130          -.259764      -.050677       2.856338
 55            130          -.773083      -.900221       2.174113
 60            130          -1.152508     -1.963153      1.471356
 65            130          -1.37707      -3.308014      .774201 
 70            130          -1.460604     -5.047258      .11656  
 75            130          -1.445839     -7.389027     -.461146 
 80            130          -1.386617     -10.79749     -.915706 
 85            130          -1.33042      -16.74958     -1.207476
 90            130          -1.308167     -999          -1.308167
 0             135           3.542924      3.542924      6.553224
 5             135           3.389643      3.533696      6.472566
 10            135           3.160269      3.484895      6.335915
 15            135           2.854022      3.393377      6.142367
 20            135           2.471326      3.253928      5.890531
 25            135           2.015074      3.059218      5.57875 
 30            135           1.492556      2.799674      5.205406
 35            135           .918138       2.463215      4.769328
 40            135           .3164         2.03476       4.270319
 45            135          -.275492       1.495337      3.709861
 50            135          -.808945       .820535       3.092073
 55            135          -1.232359     -.022241       2.425013
 60            135          -1.507535     -1.078777      1.722433
 65            135          -1.62669      -2.417821      1.006034
 70            135          -1.617391     -4.152018      .307937 
 75            135          -1.530874     -6.489676     -.32763  
 80            135          -1.422963     -9.895099     -.845682 
 85            135          -1.339247     -15.84533     -1.188032
 90            135          -1.308167     -999          -1.308167
 0             140           2.714574      4.238303      6.553224
 5             140           2.549024      4.22881       6.47993 
 10            140           2.309896      4.181021      6.355759
 15            140           1.996795      4.091743      6.179683
 20            140           1.611032      3.955674      5.949995
 25            140           1.157149      3.765368      5.664485
 30            140           .64519        3.5111        5.320678
 35            140           .093697       3.180617      4.91614 
 40            140          -.467193       2.758642      4.448891
 45            140          -.994451       2.225992      3.917981
 50            140          -1.436164      1.558036      3.324321
 55            140          -1.744055      .721957       2.67198 
 60            140          -1.892015     -.328249       1.970174
 65            140          -1.889444     -1.661537      1.236304
 70            140          -1.778353     -3.390741      .500155 
 75            140          -1.616482     -5.724334     -.191516 
 80            140          -1.45906      -9.126752     -.773148 
 85            140          -1.347946     -15.07514     -1.167636
 90            140          -1.308167     -999          -1.308167
 0             145           1.72505       4.820514      6.553224
 5             145           1.54332       4.810667      6.487576
 10            145           1.291159      4.763764      6.375976
 15            145           .968865       4.676561      6.217221
 20            145           .579217       4.543678      6.009232
 25            145           .129368       4.357548      5.74919 
 30            145          -.366438       4.108305      5.433729
 35            145          -.883616       3.783526      5.059166
 40            145          -1.38468       3.367745      4.621836
 45            145          -1.820252      2.841574      4.118568
 50            145          -2.13762       2.180171      3.547428
 55            145          -2.297823      1.350505      2.90898 
 60            145          -2.293608      .30636        2.208402
 65            145          -2.154818     -1.021416      1.459052
 70            145          -1.936374     -2.745839      .688026 
 75            145          -1.698732     -5.075539     -.056584 
 80            145          -1.493232     -8.47508      -.70011  
 85            145          -1.35611      -14.4217      -1.146834
 90            145          -1.308167     -999          -1.308167
 0             150           .532624       5.303836      6.553224
 5             150           .328992       5.293534      6.49539 
 10            150           .059201       5.247341      6.396189
 15            150          -.275166       5.161967      6.254201
 20            150          -.668805       5.031953      6.066934
 25            150          -1.110247      4.849627      5.830941
 30            150          -1.578657      4.604986      5.541964
 35            150          -2.040695      4.285449      5.195136
 40            150          -2.449765      3.875371      4.785248
 45            150          -2.751678      3.355177      4.307162
 50            150          -2.899617      2.699823      3.756486
 55            150          -2.873953      1.876079      3.130771
 60            150          -2.693577      .837535       2.431688
 65            150          -2.408975     -.485147       1.668906
 70            150          -2.08298      -2.20515       .866665 
 75            150          -1.773244     -4.531252      .073405 
 80            150          -1.523686     -7.928134     -.628689 
 85            150          -1.363317     -13.87312     -1.126236
 90            150          -1.308167     -999          -1.308167
 0             155          -.927811       5.698738      6.553224
 5             155          -1.162255      5.687871      6.50326 
 10            155          -1.456326      5.642167      6.416035
 15            155          -1.805931      5.558295      6.289887
 20            155          -2.201108      5.430727      6.121896
 25            155          -2.622874      5.251694      5.90799 
 30            155          -3.03979       5.011072      5.643069
 35            155          -3.406323      4.696137      5.321182
 40            155          -3.66705       4.291084      4.935756
 45            155          -3.770552      3.776166      4.479963
 50            155          -3.690258      3.126162      3.947339
 55            155          -3.439155      2.307663      3.332917
 60            155          -3.065784      1.274081      2.635388
 65            155          -2.635046     -.044084       1.861153
 70            155          -2.208759     -1.760169      1.031626
 75            155          -1.835441     -4.083078      .194851 
 80            155          -1.548619     -7.477601     -.56104  
 85            155          -1.369149     -13.42114     -1.106494
 90            155          -1.308167     -999          -1.308167
 0             160          -2.765743      6.01294       6.553224
 5             160          -3.046075      6.001391      6.511078
 10            160          -3.374319      5.955914      6.43518 
 15            160          -3.740902      5.873148      6.323613
 20            160          -4.126469      5.747505      6.173041
 25            160          -4.498161      5.571133      5.978806
 30            160          -4.807783      5.333805      5.735049
 35            160          -4.996401      5.022673      5.434869
 40            160          -5.00979       4.621797      5.070537
 45            160          -4.821439      4.111282      4.633826
 50            160          -4.447993      3.465754      4.116576
 55            160          -3.943442      2.651651      3.511772
 60            160          -3.377361      1.622237      2.815644
 65            160          -2.814336      .307867       2.031798
 70            160          -2.304134     -1.40492       1.179005
 75            160          -1.880911     -3.725143      .30444  
 80            160          -1.566343     -7.11768      -.499246 
 85            160          -1.373221     -13.06        -1.088263
 90            160          -1.308167     -999          -1.308167
 0             165          -5.186852      6.252099      6.553224
 5             165          -5.541781      6.239744      6.518745
 10            165          -5.918375      6.194201      6.453324
 15            165          -6.292968      6.112085      6.354795
 20            165          -6.624851      5.987763      6.219443
 25            165          -6.855489      5.813316      6.042094
 30            165          -6.917641      5.578434      5.816245
 35            165          -6.758335      5.270172      5.534209
 40            165          -6.366051      4.87248       5.187323
 45            165          -5.780104      4.365346      4.76625 
 50            165          -5.073016      3.723274      4.261501
 55            165          -4.322444      2.912577      3.664453
 60            165          -3.592511      1.886399      2.969377
 65            165          -2.9287        .574984       2.177582
 70            165          -2.360462     -1.135233      1.305518
 75            165          -1.905833     -3.453358      .399272 
 80            165          -1.575429     -6.844344     -.445223 
 85            165          -1.375209     -12.78571     -1.072173
 90            165          -1.308167     -999          -1.308167
 0             170          -8.653372      6.420253      6.553224
 5             170          -9.148176      6.406965      6.526171
 10            170          -9.581194      6.361039      6.470206
 15            170          -9.88186       6.279073      6.382942
 20            170          -9.960424      6.155401      6.260342
 25            170          -9.740478      5.98206       6.096817
 30            170          -9.203771      5.74868       5.885354
 35            170          -8.406788      5.442246      5.617667
 40            170          -7.450446      5.046631      5.284389
 45            170          -6.43569       4.541736      4.875358
 50            170          -5.439179      3.901978      4.380105
 55            170          -4.510742      3.093581      3.788809
 60            170          -3.680026      2.069603      3.094267
 65            170          -2.963801      .760206       2.296001
 70            170          -2.37128      -.94825        1.40856 
 75            170          -1.90742      -3.264936      .476949 
 80            170          -1.57484      -6.654854     -.400619 
 85            170          -1.374881     -12.59557     -1.058787
 90            170          -1.308167     -999          -1.308167
 0             175          -14.64086      6.520108      6.553224
 5             175          -15.46332      6.505764      6.533274
 10            175          -15.67444      6.459121      6.485612
 15            175          -15.08672      6.376771      6.407666
 20            175          -13.85842      6.253033      6.295158
 25            175          -12.32317      6.07992       6.142201
 30            175          -10.73365      5.847029      5.941432
 35            175          -9.216056      5.541305      5.684157
 40            175          -7.820406      5.146575      5.36054 
 45            175          -6.562506      4.642693      4.959875
 50            175          -5.444924      4.004023      4.471036
 55            175          -4.465845      3.196737      3.883396
 60            175          -3.622492      2.173844      3.188733
 65            175          -2.912333      .865456       2.385301
 70            175          -2.333397     -.842109       1.486245
 75            175          -1.884281     -3.158059      .535663 
 80            175          -1.564046     -6.54743      -.366738 
 85            175          -1.372112     -12.4878      -1.048565
 90            175          -1.308167     -999          -1.308167
 0             180          -999           6.553224      6.553224
 5             180          -26.24691      6.537702      6.539989
 10            180          -20.16387      6.490002      6.499376
 15            180          -16.54253      6.40672       6.428687
 20            180          -13.91367      6.282177      6.323494
 25            180          -11.82327      6.108381      6.177747
 30            180          -10.07525      5.874924      5.983894
 35            180          -8.57055       5.568746      5.733037
 40            180          -7.254768      5.173662      5.415104
 45            180          -6.096734      4.669515      5.019108
 50            180          -5.078281      4.030656      4.533579
 55            180          -4.188856      3.223244      3.947448
 60            180          -3.422472      2.200275      3.251915
 65            180          -2.775889      .891847       2.444479
 70            180          -2.247498     -.815733       1.537422
 75            180          -1.836624     -3.131683      .574242 
 80            180          -1.543083     -6.521047     -.344468 
 85            180          -1.366905     -12.46142     -1.041834
 90            180          -1.308167     -999          -1.308167
 0             185          -14.64086      6.520108      6.553224
 5             185          -13.52215      6.503296      6.546259
 10            185          -12.32253      6.454204      6.511385
 15            185          -11.13956      6.369443      6.445837
 20            185          -10.00631      6.24335       6.345143
 25            185          -8.930097      6.067954      6.203223
 30            185          -7.910782      5.832871      6.012512
 35            185          -6.948037      5.525064      5.764102
 40            185          -6.04352       5.128374      5.44791 
 45            185          -5.201011      4.62267       5.052925
 50            185          -4.425801      3.98233       4.567629
 55            185          -3.723947      3.173541      3.980859
 60            185          -3.101613      2.14932       3.283653
 65            185          -2.564604      .83979        2.473271
 70            185          -2.118053     -.868721       1.561684
 75            185          -1.76625      -3.185414      .59218  
 80            185          -1.512559     -6.57532      -.334245 
 85            185          -1.359385     -12.51602     -1.038764
 90            185          -1.308167     -999          -1.308167
 0             190          -8.653372      6.420253      6.553224
 5             190          -8.139831      6.402049      6.552043
 10            190          -7.628179      6.351244      6.521576
 15            190          -7.124561      6.264472      6.459059
 20            190          -6.627266      6.136105      6.36008 
 25            190          -6.131461      5.958215      6.218668
 30            190          -5.632481      5.720467      6.027406
 35            190          -5.128023      5.409879      5.777568
 40            190          -4.619393      5.010355      5.459276
 45            190          -4.111836      4.501827      5.061741
 50            190          -3.614044      3.858739      4.573677
 55            190          -3.137119      3.04734       3.984159
 60            190          -2.693288      2.020712      3.284473
 65            190          -2.294713      .709036       2.472133
 70            190          -1.952551     -1.001308      1.559362
 75            190          -1.67633      -3.319478      .589647 
 80            190          -1.473603     -6.710464     -.336031 
 85            190          -1.349797     -12.65182     -1.039364
 90            190          -1.308167     -999          -1.308167
 0             195          -5.186852      6.252099      6.553224
 5             195          -4.864489      6.232415      6.557314
 10            195          -4.577009      6.1796        6.529939
 15            195          -4.321193      6.090321      6.468408
 20            195          -4.090318      5.958999      6.368465
 25            195          -3.875581      5.777768      6.224377
 30            195          -3.667326      5.53637       6.029032
 35            195          -3.456347      5.221909      5.774061
 40            195          -3.235305      4.818383      5.449998
 45            195          -3.000111      4.305824      5.046504
 50            195          -2.750927      3.658777      4.552795
 55            195          -2.492459      2.843595      3.958509
 60            195          -2.233398      1.813456      3.255571
 65            195          -1.985167      .498635       2.442232
 70            195          -1.760328     -1.214405      1.531506
 75            195          -1.571026     -3.534751      .56747  
 80            195          -1.427753     -6.927335     -.349328 
 85            195          -1.338482     -12.86967     -1.043475
 90            195          -1.308167     -999          -1.308167
 0             200          -2.765743      6.01294       6.553224
 5             200          -2.536427      5.991707      6.562057
 10            200          -2.357069      5.936618      6.536513
 15            200          -2.223801      5.844383      6.474038
 20            200          -2.130656      5.709486      6.370626
 25            200          -2.069896      5.524143      6.220893
 30            200          -2.032249      5.278194      6.018168
 35            200          -2.007302      4.958858      5.754603
 40            200          -1.984245      4.550257      5.421327
 45            200          -1.953065      4.032556      5.008674
 50            200          -1.906056      3.380436      4.506621
 55            200          -1.839302      2.560387      3.905677
 60            200          -1.753616      1.525718      3.198792
 65            200          -1.654538      .206829       2.385413
 70            200          -1.551294     -1.509707      1.479849
 75            200          -1.455033     -3.832877      .527091 
 80            200          -1.376819     -7.227537     -.373206 
 85            200          -1.325853     -13.17114     -1.050792
 90            200          -1.308167     -999          -1.308167
 0             205          -.927811       5.698738      6.553224
 5             205          -.75348        5.675905      6.566269
 10            205          -.637514       5.618322      6.541383
 15            205          -.576633       5.522747      6.476205
 20            205          -.566246       5.383737      6.367053
 25            205          -.600374       5.193608      6.208988
 30            205          -.671439       4.94232       5.995894
 35            205          -.770094       4.617228      5.720587
 40            205          -.885308       4.202607      5.374957
 45            205          -1.004911      3.678782      4.950215
 50            205          -1.116725      3.020604      4.437344
 55            205          -1.210231      2.194726      3.82803 
 60            205          -1.278383      1.154623      3.116614
 65            205          -1.318969     -.169156       2.304179
 70            205          -1.334886     -1.889898      1.406768
 75            205          -1.333127     -4.216471      .470518 
 80            205          -1.32273      -7.613634     -.406362 
 85            205          -1.312361     -13.55877     -1.060878
 90            205          -1.308167     -999          -1.308167
 0             210           .532624       5.303836      6.553224
 5             210           .670651       5.279377      6.56996 
 10            210           .744852       5.219129      6.544675
 15            210           .757836       5.119903      6.475247
 20            210           .713012       4.976343      6.358377
 25            210           .61483        4.780875      6.189641
 30            210           .469175       4.523594      5.963572
 35            210           .283818       4.192014      5.673758
 40            210           .068765       3.770585      5.313001
 45            210          -.163706       3.239816      4.87357 
 50            210          -.399569       2.574751      4.34769 
 55            210          -.624288       1.742236      3.728512
 60            210          -.824723       .695934       3.012125
 65            210          -.991253      -.633428       2.201644
 70            210          -1.119343     -2.358978      1.31522 
 75            210          -1.20979      -4.689444      .400238 
 80            210          -1.267389     -8.089472     -.447187 
 85            210          -1.298463     -14.03636     -1.073204
 90            210          -1.308167     -999          -1.308167
 0             215           1.72505       4.820514      6.553224
 5             215           1.83734       4.794426      6.573149
 10            215           1.881828      4.731397      6.54655 
 15            215           1.860557      4.628299      6.471579
 20            215           1.776035      4.479863      6.345355
 25            215           1.631525      4.278639      6.164019
 30            215           1.431513      4.014871      5.92281 
 35            215           1.182288      3.676244      5.61618 
 40            215           .892532       3.247399      5.237957
 45            215           .573753       2.709053      4.781635
 50            215           .240325       2.036458      4.240892
 55            215          -.091164       1.196677      3.610619
 60            215          -.403429       .143579       2.888982
 65            215          -.680748      -1.191912      2.081486
 70            215          -.911353      -2.922743      1.20867 
 75            215          -1.088948     -5.257489      .319128 
 80            215          -1.212549     -8.660668     -.493858 
 85            215          -1.284596     -14.60948     -1.087178
 90            215          -1.308167     -999          -1.308167
 0             220           2.714574      4.238303      6.553224
 5             220           2.807716      4.210608      6.575864
 10            220           2.829914      4.144746      6.547199
 15            220           2.782768      4.037645      6.465674
 20            220           2.668111      3.884135      6.328845
 25            220           2.488317      3.67689       6.133439
 30            220           2.246788      3.406313      5.875434
 35            220           1.948575      3.060272      5.550198
 40            220           1.601103      2.623609      5.152679
 45            220           1.21485       2.077257      4.677725
 50            220           .803801       1.396698      4.120659
 55            220           .385357       .549219       3.478361
 60            220          -.020614      -.511085       2.751371
 65            220          -.393769      -1.85308       1.947884
 70            220          -.715976      -3.589522      1.091001
 75            220          -.97382       -5.928816      .230345 
 80            220          -1.159733     -9.335346     -.544423 
 85            220          -1.27115      -15.28621     -1.102183
 90            220          -1.308167     -999          -1.308167
 0             225           3.542924      3.542924      6.553224
 5             225           3.621342      3.513673      6.578141
 10            225           3.626195      3.444986      6.546835
 15            225           3.558739      3.333854      6.458052
 20            225           3.420309      3.175202      6.309784
 25            225           3.212621      2.961834      6.099338
 30            225           2.938251      2.684313      5.823438
 35            225           2.601276      2.330694      5.478392
 40            225           2.208045      1.886025      5.060319
 45            225           1.768015      1.331466      4.565524
 50            225           1.294494      .642729       3.991126
 55            225           .805002      -.212661       3.336211
 60            225           .32089       -1.28038       2.603941
 65            225          -.134162      -2.629073      1.80543 
 70            225          -.536759      -4.371296      .966406 
 75            225          -.866878      -6.71528       .137212 
 80            225          -1.11018      -10.12527     -.596895 
 85            225          -1.258453     -16.07825     -1.117608
 90            225          -1.308167     -999          -1.308167
 0             230           4.238303      2.714574      6.553224
 5             230           4.305149      2.683842      6.580019
 10            230           4.296173      2.612406      6.545683
 15            230           4.21237       2.497316      6.449259
 20            230           4.054703      2.333591      6.289155
 25            230           3.824404      2.114164      6.063232
 30            230           3.523432      1.829757      5.768939
 35            230           3.155108      1.468608      5.403514
 40            230           2.724914      1.015975      4.964266
 45            230           2.241407      .453238       4.449012
 50            230           1.717155     -.243656       3.856783
 55            230           1.169451     -1.106946      3.189025
 60            230           .620427      -2.182074      2.451716
 65            230           .096094      -3.537466      1.659028
 70            230          -.375953      -5.285475      .839267 
 75            230          -.769876      -7.634157      .043092 
 80            230          -1.064833     -11.04761     -.649338 
 85            230          -1.246767     -17.00271     -1.132878
 90            230          -1.308167     -999          -1.308167
 0             235           4.820514      1.72505       6.553224
 5             235           4.878152      1.69294       6.58154 
 10            235           4.858         1.618895      6.543976
 15            235           4.760853      1.500021      6.439851
 20            235           4.587403      1.331429      6.267958
 25            235           4.338521      1.106174      6.026672
 30            235           4.01571       .81513        5.714117
 35            235           3.621719      .446714       5.328421
 40            235           3.161348     -.013616       4.868063
 45            235           2.642405     -.584265       4.332385
 50            235           2.076771     -1.289058      3.722378
 55            235           1.481373     -2.160005      3.041945
 60            235           .878699      -3.242323      2.299985
 65            235           .296364      -4.604219      1.513768
 70            235          -.234775      -6.357849      .714023 
 75            235          -.683938      -8.711096     -.048722 
 80            235          -1.024351     -12.12791     -.699932 
 85            235          -1.236281     -18.08508     -1.147472
 90            235          -1.308167     -999          -1.308167
 0             240           5.303836      .532624       6.553224
 5             240           5.354122      .499263       6.582748
 10            240           5.324906      .422811       6.541941
 15            240           5.216833      .300427       6.430374
 20            240           5.030391      .127304       6.247183
 25            240           4.766191     -.103386       5.991196
 30            240           4.425399     -.400628       5.661148
 35            240           4.010339     -.77584        5.25599 
 40            240           3.525283     -1.243377      4.775309
 45            240           2.977444     -1.82144       4.21993 
 50            240           2.378115     -2.533643      3.59279 
 55            240           1.743826     -3.411779      2.900257
 60            240           1.097187     -4.50085       2.154153
 65            240           .466904      -5.868861      1.374774
 70            240          -.113665      -7.627779      .595026 
 75            240          -.609671      -9.985322     -.135127 
 80            240          -.989144      -13.40531     -.747037 
 85            240          -1.227122     -19.36442     -1.16094 
 90            240          -1.308167     -999          -1.308167
 0             245           5.698738     -.927811       6.553224
 5             245           5.743191     -.962274       6.583687
 10            245           5.706677     -1.040872      6.539797
 15            245           5.589726     -1.166401      6.42135 
 20            245           5.392679     -1.343592      6.22777 
 25            245           5.11596      -1.579172      5.958275
 30            245           4.760488     -1.881998      5.612131
 35            245           4.328273     -2.263338      5.189019
 40            245           3.823194     -2.737379      4.689537
 45            245           3.252        -3.32214       4.115893
 50            245           2.625507     -4.041042      3.472875
 55            245           1.959882     -4.925682      2.769225
 60            245           1.277739     -6.020868      2.019568
 65            245           .608519      -7.394418      1.247037
 70            245          -.012529      -9.158129      .4864   
 75            245          -.547292      -11.51957     -.21329  
 80            245          -.95942       -14.94243     -.789226 
 85            245          -1.219362     -20.90331     -1.172904
 90            245          -1.308167     -999          -1.308167
 0             250           6.01294      -2.765743      6.553224
 5             250           6.052852     -2.801137      6.584394
 10            250           6.01058      -2.881569      6.537743
 15            250           5.886571     -3.009794      6.413252
 20            250           5.681059     -3.19048       6.210582
 25            250           5.394332     -3.430265      5.92927 
 30            250           5.027137     -3.7379        5.569019
 35            250           4.581256     -4.124521      5.130132
 40            250           4.06028      -4.604173      4.614083
 45            250           3.470612     -5.194714      4.02431 
 50            250           2.822695     -5.919403      3.367274
 55            250           2.132395     -6.809664      2.653882
 60            250           1.422277     -7.910138      1.901316
 65            250           .72228       -9.288481      1.13523 
 70            250           .069052      -11.05634      .391904 
 75            250          -.496752      -13.42115     -.280729 
 80            250          -.935242      -16.8465      -.825304 
 85            250          -1.213032     -22.80891     -1.183062
 90            250          -1.308167     -999          -1.308167
 0             255           6.252099     -5.186852      6.553224
 5             255           6.288609     -5.222989      6.584904
 10            255           6.241974     -5.304897      6.535953
 15            255           6.112582     -5.435298      6.406494
 20            255           5.900592     -5.618808      6.196374
 25            255           5.6062       -5.861997      5.905371
 30            255           5.230032     -6.173525      5.533536
 35            255           4.773711     -6.564426      5.081663
 40            255           4.240627     -7.048626      4.551942
 45            255           3.636931     -7.643858      3.948832
 50            255           2.972794     -8.373244      3.280205
 55            255           2.26385      -9.26807       2.558808
 60            255           1.5326       -10.37284      1.803994
 65            255           .809318      -11.75508      1.043516
 70            255           .131654      -13.52631      .314801 
 75            255          -.457845      -15.89387     -.335371 
 80            255          -.916574      -19.32125     -.854315 
 85            255          -1.208135     -25.28489     -1.191181
 90            255          -1.308167     -999          -1.308167
 0             260           6.420253     -8.653372      6.553224
 5             260           6.454396     -8.690051      6.585248
 10            260           6.404701     -8.773039      6.534568
 15            260           6.271512     -8.905038      6.401415
 20            260           6.054943     -9.090624      6.185762
 25            260           5.755128     -9.336316      5.887562
 30            260           5.372615     -9.650708      5.507111
 35            260           4.908924     -10.04476      5.04556 
 40            260           4.367309     -10.53231      4.50563 
 45            260           3.753756     -11.131        3.892543
 50            260           3.078249     -11.86385      3.215245
 55            260           2.356259     -12.76204      2.487889
 60            260           1.610235     -13.86998      1.731486
 65            260           .870661      -15.2551       .975365 
 70            260           .175862      -17.02882      .25775  
 75            260          -.430309      -19.3984      -.375577 
 80            260          -.903334      -22.82728     -.875537 
 85            260          -1.204656     -28.79184     -1.197093
 90            260          -1.308167     -999          -1.308167
 0             265           6.520108     -14.64086      6.553224
 5             265           6.552855     -14.67786      6.585445
 10            265           6.501344     -14.76151      6.533694
 15            265           6.365896     -14.89449      6.398264
 20            265           6.146596     -15.08134      6.179206
 25            265           5.843545     -15.32857      5.876576
 30            265           5.457246     -15.64471      5.490813
 35            265           4.989164     -16.04069      5.02329 
 40            265           4.442473     -16.53029      4.477049
 45            265           3.823065     -17.1311       3.857789
 50            265           3.140817     -17.86607      3.175124
 55            265           2.411102     -18.76633      2.444092
 60            265           1.656336     -19.87621      1.686745
 65            265           .90712       -21.26309      .93339  
 70            265           .202169      -23.03834      .222714 
 75            265          -.4139        -25.40916     -.400173 
 80            265          -.895434      -28.83896     -.888467 
 85            265          -1.202578     -34.80409     -1.200684
 90            265          -1.308167     -999          -1.308167
 0             270           6.553224     -999           6.553224
 5             270           6.585509     -999           6.585509
 10            270           6.533396     -999           6.533396
 15            270           6.397197     -999           6.397197
 20            270           6.176989     -999           6.176989
 25            270           5.872862     -999           5.872862
 30            270           5.485306     -999           5.485306
 35            270           5.015764     -999           5.015764
 40            270           4.467388     -999           4.467388
 45            270           3.846037     -999           3.846037
 50            270           3.161555     -999           3.161555
 55            270           2.429281     -999           2.429281
 60            270           1.671622     -999           1.671622
 65            270           .919214      -999           .919214 
 70            270           .210901      -999           .210901 
 75            270          -.408451      -999          -.408451 
 80            270          -.892809      -999          -.892809 
 85            270          -1.201888     -999          -1.201888
 90            270          -1.308167     -999          -1.308167
 0             275           6.520108     -14.64086      6.553224
 5             275           6.552855     -14.67786      6.585445
 10            275           6.501344     -14.76151      6.533694
 15            275           6.365896     -14.89449      6.398264
 20            275           6.146596     -15.08134      6.179206
 25            275           5.843545     -15.32857      5.876576
 30            275           5.457246     -15.64471      5.490813
 35            275           4.989164     -16.04069      5.02329 
 40            275           4.442473     -16.53029      4.477049
 45            275           3.823065     -17.1311       3.857789
 50            275           3.140817     -17.86607      3.175124
 55            275           2.411102     -18.76633      2.444092
 60            275           1.656336     -19.87621      1.686745
 65            275           .90712       -21.26309      .93339  
 70            275           .202169      -23.03834      .222714 
 75            275          -.4139        -25.40916     -.400173 
 80            275          -.895434      -28.83896     -.888467 
 85            275          -1.202578     -34.80409     -1.200684
 90            275          -1.308167     -999          -1.308167
 0             280           6.420253     -8.653372      6.553224
 5             280           6.454396     -8.690051      6.585248
 10            280           6.404701     -8.773039      6.534568
 15            280           6.271512     -8.905038      6.401415
 20            280           6.054943     -9.090624      6.185762
 25            280           5.755128     -9.336316      5.887562
 30            280           5.372615     -9.650708      5.507111
 35            280           4.908924     -10.04476      5.04556 
 40            280           4.367309     -10.53231      4.50563 
 45            280           3.753756     -11.131        3.892543
 50            280           3.078249     -11.86385      3.215245
 55            280           2.356259     -12.76204      2.487889
 60            280           1.610235     -13.86998      1.731486
 65            280           .870661      -15.2551       .975365 
 70            280           .175862      -17.02882      .25775  
 75            280          -.430309      -19.3984      -.375577 
 80            280          -.903334      -22.82728     -.875537 
 85            280          -1.204656     -28.79184     -1.197093
 90            280          -1.308167     -999          -1.308167
 0             285           6.252099     -5.186852      6.553224
 5             285           6.288609     -5.222989      6.584904
 10            285           6.241974     -5.304897      6.535953
 15            285           6.112582     -5.435298      6.406494
 20            285           5.900592     -5.618808      6.196374
 25            285           5.6062       -5.861997      5.905371
 30            285           5.230032     -6.173525      5.533536
 35            285           4.773711     -6.564426      5.081663
 40            285           4.240627     -7.048626      4.551942
 45            285           3.636931     -7.643858      3.948832
 50            285           2.972794     -8.373244      3.280205
 55            285           2.26385      -9.26807       2.558808
 60            285           1.5326       -10.37284      1.803994
 65            285           .809318      -11.75508      1.043516
 70            285           .131654      -13.52631      .314801 
 75            285          -.457845      -15.89387     -.335371 
 80            285          -.916574      -19.32125     -.854315 
 85            285          -1.208135     -25.28489     -1.191181
 90            285          -1.308167     -999          -1.308167
 0             290           6.01294      -2.765743      6.553224
 5             290           6.052852     -2.801137      6.584394
 10            290           6.01058      -2.881569      6.537743
 15            290           5.886571     -3.009794      6.413252
 20            290           5.681059     -3.19048       6.210582
 25            290           5.394332     -3.430265      5.92927 
 30            290           5.027137     -3.7379        5.569019
 35            290           4.581256     -4.124521      5.130132
 40            290           4.06028      -4.604173      4.614083
 45            290           3.470612     -5.194714      4.02431 
 50            290           2.822695     -5.919403      3.367274
 55            290           2.132395     -6.809664      2.653882
 60            290           1.422277     -7.910138      1.901316
 65            290           .72228       -9.288481      1.13523 
 70            290           .069052      -11.05634      .391904 
 75            290          -.496752      -13.42115     -.280729 
 80            290          -.935242      -16.8465      -.825304 
 85            290          -1.213032     -22.80891     -1.183062
 90            290          -1.308167     -999          -1.308167
 0             295           5.698738     -.927811       6.553224
 5             295           5.743191     -.962274       6.583687
 10            295           5.706677     -1.040872      6.539797
 15            295           5.589726     -1.166401      6.42135 
 20            295           5.392679     -1.343592      6.22777 
 25            295           5.11596      -1.579172      5.958275
 30            295           4.760488     -1.881998      5.612131
 35            295           4.328273     -2.263338      5.189019
 40            295           3.823194     -2.737379      4.689537
 45            295           3.252        -3.32214       4.115893
 50            295           2.625507     -4.041042      3.472875
 55            295           1.959882     -4.925682      2.769225
 60            295           1.277739     -6.020868      2.019568
 65            295           .608519      -7.394418      1.247037
 70            295          -.012529      -9.158129      .4864   
 75            295          -.547292      -11.51957     -.21329  
 80            295          -.95942       -14.94243     -.789226 
 85            295          -1.219362     -20.90331     -1.172904
 90            295          -1.308167     -999          -1.308167
 0             300           5.303836      .532624       6.553224
 5             300           5.354122      .499263       6.582748
 10            300           5.324906      .422811       6.541941
 15            300           5.216833      .300427       6.430374
 20            300           5.030391      .127304       6.247183
 25            300           4.766191     -.103386       5.991196
 30            300           4.425399     -.400628       5.661148
 35            300           4.010339     -.77584        5.25599 
 40            300           3.525283     -1.243377      4.775309
 45            300           2.977444     -1.82144       4.21993 
 50            300           2.378115     -2.533643      3.59279 
 55            300           1.743826     -3.411779      2.900257
 60            300           1.097187     -4.50085       2.154153
 65            300           .466904      -5.868861      1.374774
 70            300          -.113665      -7.627779      .595026 
 75            300          -.609671      -9.985322     -.135127 
 80            300          -.989144      -13.40531     -.747037 
 85            300          -1.227122     -19.36442     -1.16094 
 90            300          -1.308167     -999          -1.308167
 0             305           4.820514      1.72505       6.553224
 5             305           4.878152      1.69294       6.58154 
 10            305           4.858         1.618895      6.543976
 15            305           4.760853      1.500021      6.439851
 20            305           4.587403      1.331429      6.267958
 25            305           4.338521      1.106174      6.026672
 30            305           4.01571       .81513        5.714117
 35            305           3.621719      .446714       5.328421
 40            305           3.161348     -.013616       4.868063
 45            305           2.642405     -.584265       4.332385
 50            305           2.076771     -1.289058      3.722378
 55            305           1.481373     -2.160005      3.041945
 60            305           .878699      -3.242323      2.299985
 65            305           .296364      -4.604219      1.513768
 70            305          -.234775      -6.357849      .714023 
 75            305          -.683938      -8.711096     -.048722 
 80            305          -1.024351     -12.12791     -.699932 
 85            305          -1.236281     -18.08508     -1.147472
 90            305          -1.308167     -999          -1.308167
 0             310           4.238303      2.714574      6.553224
 5             310           4.305149      2.683842      6.580019
 10            310           4.296173      2.612406      6.545683
 15            310           4.21237       2.497316      6.449259
 20            310           4.054703      2.333591      6.289155
 25            310           3.824404      2.114164      6.063232
 30            310           3.523432      1.829757      5.768939
 35            310           3.155108      1.468608      5.403514
 40            310           2.724914      1.015975      4.964266
 45            310           2.241407      .453238       4.449012
 50            310           1.717155     -.243656       3.856783
 55            310           1.169451     -1.106946      3.189025
 60            310           .620427      -2.182074      2.451716
 65            310           .096094      -3.537466      1.659028
 70            310          -.375953      -5.285475      .839267 
 75            310          -.769876      -7.634157      .043092 
 80            310          -1.064833     -11.04761     -.649338 
 85            310          -1.246767     -17.00271     -1.132878
 90            310          -1.308167     -999          -1.308167
 0             315           3.542924      3.542924      6.553224
 5             315           3.621342      3.513673      6.578141
 10            315           3.626195      3.444986      6.546835
 15            315           3.558739      3.333854      6.458052
 20            315           3.420309      3.175202      6.309784
 25            315           3.212621      2.961834      6.099338
 30            315           2.938251      2.684313      5.823438
 35            315           2.601276      2.330694      5.478392
 40            315           2.208045      1.886025      5.060319
 45            315           1.768015      1.331466      4.565524
 50            315           1.294494      .642729       3.991126
 55            315           .805002      -.212661       3.336211
 60            315           .32089       -1.28038       2.603941
 65            315          -.134162      -2.629073      1.80543 
 70            315          -.536759      -4.371296      .966406 
 75            315          -.866878      -6.71528       .137212 
 80            315          -1.11018      -10.12527     -.596895 
 85            315          -1.258453     -16.07825     -1.117608
 90            315          -1.308167     -999          -1.308167
 0             320           2.714574      4.238303      6.553224
 5             320           2.807716      4.210608      6.575864
 10            320           2.829914      4.144746      6.547199
 15            320           2.782768      4.037645      6.465674
 20            320           2.668111      3.884135      6.328845
 25            320           2.488317      3.67689       6.133439
 30            320           2.246788      3.406313      5.875434
 35            320           1.948575      3.060272      5.550198
 40            320           1.601103      2.623609      5.152679
 45            320           1.21485       2.077257      4.677725
 50            320           .803801       1.396698      4.120659
 55            320           .385357       .549219       3.478361
 60            320          -.020614      -.511085       2.751371
 65            320          -.393769      -1.85308       1.947884
 70            320          -.715976      -3.589522      1.091001
 75            320          -.97382       -5.928816      .230345 
 80            320          -1.159733     -9.335346     -.544423 
 85            320          -1.27115      -15.28621     -1.102183
 90            320          -1.308167     -999          -1.308167
 0             325           1.72505       4.820514      6.553224
 5             325           1.83734       4.794426      6.573149
 10            325           1.881828      4.731397      6.54655 
 15            325           1.860557      4.628299      6.471579
 20            325           1.776035      4.479863      6.345355
 25            325           1.631525      4.278639      6.164019
 30            325           1.431513      4.014871      5.92281 
 35            325           1.182288      3.676244      5.61618 
 40            325           .892532       3.247399      5.237957
 45            325           .573753       2.709053      4.781635
 50            325           .240325       2.036458      4.240892
 55            325          -.091164       1.196677      3.610619
 60            325          -.403429       .143579       2.888982
 65            325          -.680748      -1.191912      2.081486
 70            325          -.911353      -2.922743      1.20867 
 75            325          -1.088948     -5.257489      .319128 
 80            325          -1.212549     -8.660668     -.493858 
 85            325          -1.284596     -14.60948     -1.087178
 90            325          -1.308167     -999          -1.308167
 0             330           .532624       5.303836      6.553224
 5             330           .670651       5.279377      6.56996 
 10            330           .744852       5.219129      6.544675
 15            330           .757836       5.119903      6.475247
 20            330           .713012       4.976343      6.358377
 25            330           .61483        4.780875      6.189641
 30            330           .469175       4.523594      5.963572
 35            330           .283818       4.192014      5.673758
 40            330           .068765       3.770585      5.313001
 45            330          -.163706       3.239816      4.87357 
 50            330          -.399569       2.574751      4.34769 
 55            330          -.624288       1.742236      3.728512
 60            330          -.824723       .695934       3.012125
 65            330          -.991253      -.633428       2.201644
 70            330          -1.119343     -2.358978      1.31522 
 75            330          -1.20979      -4.689444      .400238 
 80            330          -1.267389     -8.089472     -.447187 
 85            330          -1.298463     -14.03636     -1.073204
 90            330          -1.308167     -999          -1.308167
 0             335          -.927811       5.698738      6.553224
 5             335          -.75348        5.675905      6.566269
 10            335          -.637514       5.618322      6.541383
 15            335          -.576633       5.522747      6.476205
 20            335          -.566246       5.383737      6.367053
 25            335          -.600374       5.193608      6.208988
 30            335          -.671439       4.94232       5.995894
 35            335          -.770094       4.617228      5.720587
 40            335          -.885308       4.202607      5.374957
 45            335          -1.004911      3.678782      4.950215
 50            335          -1.116725      3.020604      4.437344
 55            335          -1.210231      2.194726      3.82803 
 60            335          -1.278383      1.154623      3.116614
 65            335          -1.318969     -.169156       2.304179
 70            335          -1.334886     -1.889898      1.406768
 75            335          -1.333127     -4.216471      .470518 
 80            335          -1.32273      -7.613634     -.406362 
 85            335          -1.312361     -13.55877     -1.060878
 90            335          -1.308167     -999          -1.308167
 0             340          -2.765743      6.01294       6.553224
 5             340          -2.536427      5.991707      6.562057
 10            340          -2.357069      5.936618      6.536513
 15            340          -2.223801      5.844383      6.474038
 20            340          -2.130656      5.709486      6.370626
 25            340          -2.069896      5.524143      6.220893
 30            340          -2.032249      5.278194      6.018168
 35            340          -2.007302      4.958858      5.754603
 40            340          -1.984245      4.550257      5.421327
 45            340          -1.953065      4.032556      5.008674
 50            340          -1.906056      3.380436      4.506621
 55            340          -1.839302      2.560387      3.905677
 60            340          -1.753616      1.525718      3.198792
 65            340          -1.654538      .206829       2.385413
 70            340          -1.551294     -1.509707      1.479849
 75            340          -1.455033     -3.832877      .527091 
 80            340          -1.376819     -7.227537     -.373206 
 85            340          -1.325853     -13.17114     -1.050792
 90            340          -1.308167     -999          -1.308167
 0             345          -5.186852      6.252099      6.553224
 5             345          -4.864489      6.232415      6.557314
 10            345          -4.577009      6.1796        6.529939
 15            345          -4.321193      6.090321      6.468408
 20            345          -4.090318      5.958999      6.368465
 25            345          -3.875581      5.777768      6.224377
 30            345          -3.667326      5.53637       6.029032
 35            345          -3.456347      5.221909      5.774061
 40            345          -3.235305      4.818383      5.449998
 45            345          -3.000111      4.305824      5.046504
 50            345          -2.750927      3.658777      4.552795
 55            345          -2.492459      2.843595      3.958509
 60            345          -2.233398      1.813456      3.255571
 65            345          -1.985167      .498635       2.442232
 70            345          -1.760328     -1.214405      1.531506
 75            345          -1.571026     -3.534751      .56747  
 80            345          -1.427753     -6.927335     -.349328 
 85            345          -1.338482     -12.86967     -1.043475
 90            345          -1.308167     -999          -1.308167
 0             350          -8.653372      6.420253      6.553224
 5             350          -8.139831      6.402049      6.552043
 10            350          -7.628179      6.351244      6.521576
 15            350          -7.124561      6.264472      6.459059
 20            350          -6.627266      6.136105      6.36008 
 25            350          -6.131461      5.958215      6.218668
 30            350          -5.632481      5.720467      6.027406
 35            350          -5.128023      5.409879      5.777568
 40            350          -4.619393      5.010355      5.459276
 45            350          -4.111836      4.501827      5.061741
 50            350          -3.614044      3.858739      4.573677
 55            350          -3.137119      3.04734       3.984159
 60            350          -2.693288      2.020712      3.284473
 65            350          -2.294713      .709036       2.472133
 70            350          -1.952551     -1.001308      1.559362
 75            350          -1.67633      -3.319478      .589647 
 80            350          -1.473603     -6.710464     -.336031 
 85            350          -1.349797     -12.65182     -1.039364
 90            350          -1.308167     -999          -1.308167
 0             355          -14.64086      6.520108      6.553224
 5             355          -13.52215      6.503296      6.546259
 10            355          -12.32253      6.454204      6.511385
 15            355          -11.13956      6.369443      6.445837
 20            355          -10.00631      6.24335       6.345143
 25            355          -8.930097      6.067954      6.203223
 30            355          -7.910782      5.832871      6.012512
 35            355          -6.948037      5.525064      5.764102
 40            355          -6.04352       5.128374      5.44791 
 45            355          -5.201011      4.62267       5.052925
 50            355          -4.425801      3.98233       4.567629
 55            355          -3.723947      3.173541      3.980859
 60            355          -3.101613      2.14932       3.283653
 65            355          -2.564604      .83979        2.473271
 70            355          -2.118053     -.868721       1.561684
 75            355          -1.76625      -3.185414      .59218  
 80            355          -1.512559     -6.57532      -.334245 
 85            355          -1.359385     -12.51602     -1.038764
 90            355          -1.308167     -999          -1.308167
 0             360          -999           6.553224      6.553224
 5             360          -26.24691      6.537702      6.539989
 10            360          -20.16387      6.490002      6.499376
 15            360          -16.54253      6.40672       6.428687
 20            360          -13.91367      6.282177      6.323494
 25            360          -11.82327      6.108381      6.177747
 30            360          -10.07525      5.874924      5.983894
 35            360          -8.57055       5.568746      5.733037
 40            360          -7.254768      5.173662      5.415104
 45            360          -6.096734      4.669515      5.019108
 50            360          -5.078281      4.030656      4.533579
 55            360          -4.188856      3.223244      3.947448
 60            360          -3.422472      2.200275      3.251915
 65            360          -2.775889      .891847       2.444479
 70            360          -2.247498     -.815733       1.537422
 75            360          -1.836624     -3.131683      .574242 
 80            360          -1.543083     -6.521047     -.344468 
 85            360          -1.366905     -12.46142     -1.041834
 90            360          -1.308167     -999          -1.308167
