                   ****************************************
                     MINI-NUMERICAL ELECTROMAGNETICS CODE
                                   MININEC
                   ****************************************

ENVIRONMENT (+1 FOR FREE SPACE, -1 FOR GROUND PLANE): -1
 NUMBER OF MEDIA (0 FOR PERFECTLY CONDUCTING GROUND):  0

NO. OF WIRES: 7

WIRE NO. 1
            COORDINATES                                 END         NO. OF
   X             Y             Z          RADIUS     CONNECTION     SEGMENTS
 0             .049987       10.51999                   0
 0            -.049987       10.51999      .002011      0              2

WIRE NO. 2
            COORDINATES                                 END         NO. OF
   X             Y             Z          RADIUS     CONNECTION     SEGMENTS
-5             9.172011      3.509985                   0
 0             .049987       10.51999      .002011      1             16

WIRE NO. 3
            COORDINATES                                 END         NO. OF
   X             Y             Z          RADIUS     CONNECTION     SEGMENTS
 0            -.049987       10.51999                   1
 5            -9.172011      3.509985      .002011      0             16

WIRE NO. 4
            COORDINATES                                 END         NO. OF
   X             Y             Z          RADIUS     CONNECTION     SEGMENTS
 4.032992      7.397008      4.86598                    0
 0             .049987       10.51999      .002011      1             16

WIRE NO. 5
            COORDINATES                                 END         NO. OF
   X             Y             Z          RADIUS     CONNECTION     SEGMENTS
 0            -.049987       10.51999                   1
-4.032992     -7.397008      4.86598       .002011      0             16

WIRE NO. 6
            COORDINATES                                 END         NO. OF
   X             Y             Z          RADIUS     CONNECTION     SEGMENTS
 0             4.194993      7.313981                   0
 0             .049987       10.51999      .002011      1              8

WIRE NO. 7
            COORDINATES                                 END         NO. OF
   X             Y             Z          RADIUS     CONNECTION     SEGMENTS
 0            -.049987       10.51999                   1
 0            -4.194993      7.313981      .002011      0              8

                  **** ANTENNA GEOMETRY ****

WIRE NO.  1  COORDINATES                                CONNECTION PULSE
X             Y             Z             RADIUS        END1 END2  NO.
 0             0             10.51999      .002011       0    0   1

WIRE NO.  2  COORDINATES                                CONNECTION PULSE
X             Y             Z             RADIUS        END1 END2  NO.
-4.6875        8.601885      3.948111      .002011       0    2   2
-4.375         8.031758      4.386236      .002011       2    2   3
-4.0625        7.461632      4.824361      .002011       2    2   4
-3.75          6.891505      5.262486      .002011       2    2   5
-3.4375        6.321379      5.700612      .002011       2    2   6
-3.125         5.751252      6.138737      .002011       2    2   7
-2.8125        5.181126      6.576862      .002011       2    2   8
-2.5           4.610999      7.014987      .002011       2    2   9
-2.1875        4.040873      7.453112      .002011       2    2  10
-1.875         3.470746      7.891238      .002011       2    2  11
-1.5625        2.90062       8.329363      .002011       2    2  12
-1.25          2.330493      8.767488      .002011       2    2  13
-.9375         1.760367      9.205613      .002011       2    2  14
-.625          1.19024       9.643739      .002011       2    2  15
-.3125         .620114       10.08186      .002011       2    2  16
 0             .049987       10.51999      .002011       2    1  17

WIRE NO.  3  COORDINATES                                CONNECTION PULSE
X             Y             Z             RADIUS        END1 END2  NO.
 0            -.049987       10.51999      .002011       1    3  18
 .3125        -.620114       10.08186      .002011       3    3  19
 .625         -1.19024       9.643739      .002011       3    3  20
 .9375        -1.760367      9.205613      .002011       3    3  21
 1.25         -2.330493      8.767488      .002011       3    3  22
 1.5625       -2.90062       8.329363      .002011       3    3  23
 1.875        -3.470746      7.891238      .002011       3    3  24
 2.1875       -4.040873      7.453112      .002011       3    3  25
 2.5          -4.610999      7.014987      .002011       3    3  26
 2.8125       -5.181126      6.576862      .002011       3    3  27
 3.125        -5.751252      6.138737      .002011       3    3  28
 3.4375       -6.321379      5.700612      .002011       3    3  29
 3.75         -6.891505      5.262486      .002011       3    3  30
 4.0625       -7.461632      4.824361      .002011       3    3  31
 4.375        -8.031758      4.386236      .002011       3    3  32
 4.6875       -8.601885      3.948111      .002011       3    0  33

WIRE NO.  4  COORDINATES                                CONNECTION PULSE
X             Y             Z             RADIUS        END1 END2  NO.
 3.78093       6.93782       5.219355      .002011       0    4  34
 3.528868      6.478631      5.572731      .002011       4    4  35
 3.276806      6.019442      5.926106      .002011       4    4  36
 3.024744      5.560253      6.279482      .002011       4    4  37
 2.772682      5.101064      6.632858      .002011       4    4  38
 2.52062       4.641875      6.986233      .002011       4    4  39
 2.268558      4.182687      7.339609      .002011       4    4  40
 2.016496      3.723498      7.692984      .002011       4    4  41
 1.764434      3.264309      8.04636       .002011       4    4  42
 1.512372      2.80512       8.399736      .002011       4    4  43
 1.26031       2.345931      8.753111      .002011       4    4  44
 1.008248      1.886742      9.106487      .002011       4    4  45
 .756186       1.427554      9.459862      .002011       4    4  46
 .504124       .968365       9.813238      .002011       4    4  47
 .252062       .509176       10.16661      .002011       4    4  48
 0             .049987       10.51999      .002011       4    1  49

WIRE NO.  5  COORDINATES                                CONNECTION PULSE
X             Y             Z             RADIUS        END1 END2  NO.
 0            -.049987       10.51999      .002011       1    5  50
-.252062      -.509176       10.16661      .002011       5    5  51
-.504124      -.968365       9.813238      .002011       5    5  52
-.756186      -1.427554      9.459862      .002011       5    5  53
-1.008248     -1.886742      9.106487      .002011       5    5  54
-1.26031      -2.345931      8.753111      .002011       5    5  55
-1.512372     -2.80512       8.399736      .002011       5    5  56
-1.764434     -3.264309      8.04636       .002011       5    5  57
-2.016496     -3.723498      7.692984      .002011       5    5  58
-2.268558     -4.182687      7.339609      .002011       5    5  59
-2.52062      -4.641875      6.986233      .002011       5    5  60
-2.772682     -5.101064      6.632858      .002011       5    5  61
-3.024744     -5.560253      6.279482      .002011       5    5  62
-3.276806     -6.019442      5.926106      .002011       5    5  63
-3.528868     -6.478631      5.572731      .002011       5    5  64
-3.78093      -6.93782       5.219355      .002011       5    0  65

WIRE NO.  6  COORDINATES                                CONNECTION PULSE
X             Y             Z             RADIUS        END1 END2  NO.
 0             3.676867      7.714732      .002011       0    6  66
 0             3.158741      8.115483      .002011       6    6  67
 0             2.640616      8.516234      .002011       6    6  68
 0             2.12249       8.916985      .002011       6    6  69
 0             1.604364      9.317736      .002011       6    6  70
 0             1.086239      9.718487      .002011       6    6  71
 0             .568113       10.11924      .002011       6    6  72
 0             .049987       10.51999      .002011       6    1  73

WIRE NO.  7  COORDINATES                                CONNECTION PULSE
X             Y             Z             RADIUS        END1 END2  NO.
 0            -.049987       10.51999      .002011       1    7  74
 0            -.568113       10.11924      .002011       7    7  75
 0            -1.086239      9.718487      .002011       7    7  76
 0            -1.604364      9.317736      .002011       7    7  77
 0            -2.12249       8.916985      .002011       7    7  78
 0            -2.640616      8.516234      .002011       7    7  79
 0            -3.158741      8.115483      .002011       7    7  80
 0            -3.676867      7.714732      .002011       7    0  81

NO. OF SOURCES :  1
PULSE NO., VOLTAGE MAGNITUDE, PHASE (DEGREES):  1 , 1 , 0
NUMBER OF LOADS 2
PULSE NO., ORDER OF S-PARAMETER FUNCTION:  5 , 1
NUMERATOR, DENOMINATOR COEFFICIENTS OF S^ 1 : 0.1 , 1
NUMERATOR, DENOMINATOR COEFFICIENTS OF S^ 2 : 60 , 0
PULSE NO., ORDER OF S-PARAMETER FUNCTION:  30 , 1
NUMERATOR, DENOMINATOR COEFFICIENTS OF S^ 1 : 0.1 , 1
NUMERATOR, DENOMINATOR COEFFICIENTS OF S^ 2 : 60 , 0

FREQUENCY (MHZ): 7
    WAVE LENGTH =  42.82857  METERS

********************    SOURCE DATA     ********************
PULSE  1      VOLTAGE = ( 1 , 0 J)
              CURRENT = ( 2.542247E-02 , -9.613981E-04 J)
              IMPEDANCE = ( 39.27911 ,  1.485413 J)
              POWER =  1.271124E-02  WATTS

********************    CURRENT DATA    ********************

WIRE NO.  1 :
PULSE         REAL          IMAGINARY     MAGNITUDE     PHASE
 NO.          (AMPS)        (AMPS)        (AMPS)        (DEGREES)
J              3.107086E-03  1.398969E-03  3.407507E-03  24.23971 
 1             2.542247E-02 -9.613981E-04  2.544064E-02 -2.165715 
J              2.543555E-02 -9.673242E-04  2.545394E-02 -2.177932 
WIRE NO.  2 :
PULSE         REAL          IMAGINARY     MAGNITUDE     PHASE
 NO.          (AMPS)        (AMPS)        (AMPS)        (DEGREES)
E              0             0             0             0
 2            -3.144078E-04 -2.316006E-05  3.152596E-04 -175.7871 
 3            -6.325127E-04 -3.499731E-05  6.334801E-04 -176.833  
 4            -9.821348E-04 -3.710668E-05  9.828356E-04 -177.8363 
 5            -1.430722E-03 -3.087375E-05  1.431055E-03 -178.7638 
 6            -6.368805E-04  1.273796E-05  6.370078E-04  178.8542 
 7             4.768725E-05  6.467419E-05  8.035437E-05  53.59694 
 8             6.786297E-04  1.260703E-04  6.902405E-04  10.52397 
 9             1.260032E-03  1.967881E-04  1.275306E-03  8.876583 
 10            1.788375E-03  2.763356E-04  1.809598E-03  8.783747 
 11            2.258081E-03  3.639518E-04  2.287223E-03  9.156044 
 12            2.664339E-03  4.586284E-04  2.703524E-03  9.766942 
 13            3.004826E-03  5.591668E-04  3.056411E-03  10.54157 
 14            3.279181E-03  6.642768E-04  3.345787E-03  11.45167 
 15            3.487753E-03  7.725557E-04  3.572291E-03  12.48966 
 16            3.628731E-03  8.795776E-04  3.733811E-03  13.62528 
J              3.621763E-03  8.767145E-04  3.726365E-03  13.60774 
WIRE NO.  3 :
PULSE         REAL          IMAGINARY     MAGNITUDE     PHASE
 NO.          (AMPS)        (AMPS)        (AMPS)        (DEGREES)
J              3.621744E-03  8.767106E-04  3.726345E-03  13.60775 
 19            3.628712E-03  8.795737E-04  3.733791E-03  13.6253  
 20            3.487734E-03  7.725519E-04  3.572272E-03  12.48966 
 21            3.279162E-03  6.642731E-04  3.345768E-03  11.45167 
 22            3.004808E-03  5.591633E-04  3.056393E-03  10.54156 
 23            2.664324E-03  4.586251E-04  2.703508E-03  9.766931 
 24            2.258067E-03  3.639488E-04  2.287209E-03  9.156027 
 25            1.788364E-03  2.763332E-04  1.809587E-03  8.783726 
 26            1.260024E-03  1.967864E-04  1.275298E-03  8.876562 
 27            6.786252E-04  1.260693E-04  6.902360E-04  10.52396 
 28            4.768673E-05  6.467406E-05  8.035396E-05  53.59719 
 29           -6.368767E-04  1.273876E-05  6.370041E-04  178.8541 
 30           -1.430713E-03 -3.087189E-05  1.431046E-03 -178.7639 
 31           -9.821287E-04 -3.710539E-05  9.828294E-04 -177.8364 
 32           -6.325085E-04 -3.499645E-05  6.334760E-04 -176.8331 
 33           -3.144056E-04 -2.315962E-05  3.152574E-04 -175.7871 
E              0             0             0             0
WIRE NO.  4 :
PULSE         REAL          IMAGINARY     MAGNITUDE     PHASE
 NO.          (AMPS)        (AMPS)        (AMPS)        (DEGREES)
E              0             0             0             0
 34            2.288491E-03 -3.548697E-04  2.315842E-03 -8.814487 
 35            4.344613E-03 -6.648358E-04  4.395187E-03 -8.700214 
 36            6.284467E-03 -9.485331E-04  6.355646E-03 -8.583036 
 37            8.121069E-03 -1.208210E-03  8.210452E-03 -8.462096 
 38            9.851978E-03 -1.443707E-03  9.957196E-03 -8.336779 
 39            1.146968E-02 -1.654137E-03  1.158835E-02 -8.206509 
 40            1.296474E-02 -1.838393E-03  1.309444E-02 -8.070701 
 41            1.432718E-02 -1.995367E-03  1.446546E-02 -7.928664 
 42            1.554756E-02 -2.124057E-03  1.569198E-02 -7.779402 
 43            1.661790E-02 -2.223611E-03  1.676601E-02 -7.621373 
 44            1.753204E-02 -2.293321E-03  1.768140E-02 -7.452401 
 45            1.828541E-02 -2.332561E-03  1.843359E-02 -7.269618 
 46            1.887479E-02 -2.340602E-03  1.901936E-02 -7.068976 
 47            1.929864E-02 -2.315949E-03  1.943711E-02 -6.8431   
 48            1.956718E-02 -2.245271E-03  1.969558E-02 -6.545876 
J              1.870670E-02 -3.243008E-03  1.898573E-02 -9.835088 
WIRE NO.  5 :
PULSE         REAL          IMAGINARY     MAGNITUDE     PHASE
 NO.          (AMPS)        (AMPS)        (AMPS)        (DEGREES)
J              1.870672E-02 -3.243005E-03  1.898574E-02 -9.835073 
 51            1.956720E-02 -2.245267E-03  1.969559E-02 -6.545861 
 52            1.929866E-02 -2.315945E-03  1.943713E-02 -6.843084 
 53            1.887481E-02 -2.340598E-03  1.901938E-02 -7.068961 
 54            1.828543E-02 -2.332558E-03  1.843360E-02 -7.269602 
 55            1.753206E-02 -2.293318E-03  1.768141E-02 -7.452385 
 56            1.661791E-02 -2.223608E-03  1.676602E-02 -7.621357 
 57            1.554757E-02 -2.124054E-03  1.569199E-02 -7.779386 
 58            1.432720E-02 -1.995365E-03  1.446548E-02 -7.928648 
 59            1.296475E-02 -1.838391E-03  1.309445E-02 -8.070686 
 60            1.146969E-02 -1.654135E-03  1.158836E-02 -8.206494 
 61            9.851986E-03 -1.443706E-03  9.957204E-03 -8.336763 
 62            8.121075E-03 -1.208209E-03  8.210459E-03 -8.462081 
 63            6.284472E-03 -9.485321E-04  6.355651E-03 -8.583021 
 64            4.344617E-03 -6.648352E-04  4.395191E-03 -8.700198 
 65            2.288493E-03 -3.548693E-04  2.315844E-03 -8.814471 
E              0             0             0             0
WIRE NO.  6 :
PULSE         REAL          IMAGINARY     MAGNITUDE     PHASE
 NO.          (AMPS)        (AMPS)        (AMPS)        (DEGREES)
E              0             0             0             0
 66            4.528629E-04  3.020583E-06  4.528730E-04  .382156  
 67            8.305457E-04  1.842916E-05  8.307501E-04  1.27114  
 68            1.161156E-03  4.503185E-05  1.162029E-03  2.220927 
 69            1.450995E-03  8.217326E-05  1.453320E-03  3.241334 
 70            1.703287E-03  1.293048E-04  1.708188E-03  4.341275 
 71            1.920749E-03  1.858634E-04  1.929720E-03  5.527082 
 72            2.102493E-03  2.435441E-04  2.116552E-03  6.607458 
J              3.107086E-03  1.398969E-03  3.407507E-03  24.23971 
WIRE NO.  7 :
PULSE         REAL          IMAGINARY     MAGNITUDE     PHASE
 NO.          (AMPS)        (AMPS)        (AMPS)        (DEGREES)
J              3.107091E-03  1.398971E-03  3.407512E-03  24.2397  
 75            2.102495E-03  2.435446E-04  2.116554E-03  6.607466 
 76            1.920750E-03  1.858639E-04  1.929722E-03  5.527091 
 77            1.703288E-03  1.293052E-04  1.708189E-03  4.341284 
 78            1.450996E-03  8.217356E-05  1.453321E-03  3.241343 
 79            1.161157E-03  4.503208E-05  1.162030E-03  2.220937 
 80            8.305461E-04  1.842930E-05  8.307506E-04  1.271149 
 81            4.528630E-04  3.020638E-06  4.528730E-04  .382163  
E              0             0             0             0

********************     FAR FIELD      ********************

ZENITH ANGLE : INITIAL,INCREMENT,NUMBER: 0 , 11 , 9
AZIMUTH ANGLE: INITIAL,INCREMENT,NUMBER: 0 , 10 , 37

********************    PATTERN DATA    ********************
ZENITH        AZIMUTH       VERTICAL      HORIZONTAL    TOTAL
 ANGLE         ANGLE        PATTERN (DB)  PATTERN (DB)  PATTERN (DB)
 0             0            -1.404308      6.572683      7.214759
 11            0            -1.586823      6.503673      7.130323
 22            0            -2.140319      6.26864       6.853834
 33            0            -3.078005      5.783185      6.313898
 44            0            -4.403783      4.900465      5.382454
 55            0            -6.074533      3.381033      3.847373
 66            0            -7.925667      .776715       1.325994
 77            0            -9.567661     -4.103853     -3.017537
 88            0            -10.39812     -20.17664     -9.963587
 0             10            1.629962      5.809812      7.214759
 11            10            1.438461      5.735951      7.108701
 22            10            .85777        5.487311      6.772552
 33            10           -.126179       4.98202       6.14958 
 44            10           -1.519116      4.076631      5.134092
 55            10           -3.2804        2.535175      3.546062
 66            10           -5.244402     -.08753        1.068605
 77            10           -7.002576     -4.980628     -2.86468 
 88            10           -7.899266     -21.05871     -7.69436 
 0             20            3.672071      4.678652      7.214759
 11            20            3.472442      4.600046      7.083038
 22            20            2.867804      4.338093      6.675174
 33            20            1.845186      3.813402      5.950152
 44            20            .400116       2.88586       4.828756
 55            20           -1.425666      1.322906      3.172825
 66            20           -3.463878     -1.317721      .750744 
 77            20           -5.294264     -6.223015     -2.72356 
 88            20           -6.231045     -22.30624     -6.12513 
 0             30            5.104908      3.067131      7.214759
 11            30            4.898161      2.985022      7.056397
 22            30            4.272755      2.713251      6.57293 
 33            30            3.217289      2.174283      5.737322
 44            30            1.729327      1.230485      4.497364
 55            30           -.14733       -.348184       2.763704
 66            30           -2.241474     -3.001863      .405252 
 77            30           -4.124319     -7.916009     -2.608574
 88            30           -5.089658     -24.00297     -5.034236
 0             40            6.103217      .752248       7.214759
 11            40            5.89086       .669408       7.031987
 22            40            5.249093      .395609       6.478058
 33            40            4.167773     -.146249       5.536049
 44            40            2.646081     -1.093244      4.177319
 55            40            .729406      -2.674899      2.362914
 66            40           -1.408841     -5.330971      .068879 
 77            40           -3.333242     -10.24669     -2.528627
 88            40           -4.321304     -26.3343      -4.29407 
 0             50            6.75769      -2.789802      7.214759
 11            50            6.541703     -2.867541      7.012781
 22            50            5.889239     -3.127033      6.402392
 33            50            4.790611     -3.648047      5.372073
 44            50            3.245446     -4.571244      3.909906
 55            50            1.299352     -6.129806      2.020941
 66            50           -.873476      -8.766621     -.219781 
 77            50           -2.832429     -13.66923     -2.488253
 88            50           -3.840088     -29.75131     -3.828968
 0             60            7.117101     -9.314742      7.214759
 11            60            6.899765     -9.367845      7.001144
 22            60            6.243063     -9.558813      6.355769
 33            60            5.136678     -9.98152       5.268312
 44            60            3.579066     -10.79465      3.734878
 55            60            1.614166     -12.24858      1.789045
 66            60           -.584892      -14.79977     -.423383 
 77            60           -2.573536     -19.64493     -2.489121
 88            60           -3.599192     -35.70294     -3.596517
 0             70            7.205186     -19.35766      7.214759
 11            70            6.988837     -19.52335      6.998522
 22            70            6.33447      -20.02256      6.344507
 33            70            5.229933     -20.87052      5.240579
 44            70            3.670717     -22.12606      3.682133
 55            70            1.696996     -23.95504      1.708799
 66            70           -.521159      -26.77093     -.510872 
 77            70           -2.536265     -31.76858     -2.531085
 88            70           -3.579394     -47.88391     -3.579233
 0             80            7.027464     -6.531132      7.214759
 11            80            6.814216     -6.656622      7.005251
 22            80            6.168113     -7.05108       6.370283
 33            80            5.073989     -7.771492      5.293874
 44            80            3.522641     -8.926482      3.762967
 55            80            1.548463     -10.71432      1.799026
 66            80           -.683442      -13.54569     -.464383 
 77            80           -2.723502     -18.58254     -2.61225 
 88            80           -3.784567     -34.72176     -3.781069
 0             90            6.572683     -1.404308      7.214759
 11            90            6.364176     -1.510146      7.020506
 22            90            5.730895     -1.84881       6.429773
 33            90            4.653657     -2.486128      5.420813
 44            90            3.117097     -3.54355       3.965512
 55            90            1.148105     -5.233874      2.047295
 66            90           -1.094813     -7.981732     -.2857   
 77            90           -3.16052      -12.96056     -2.728029
 88            90           -4.241138     -29.07498     -4.226892
 0             100           5.809812      1.629962      7.214759
 11            100           5.606993      1.536373      7.042405
 22            100           4.989115      1.232283      6.515159
 33            100           3.932244      .645905       5.603079
 44            100           2.413766     -.352524       4.257548
 55            100           .451762      -1.984752      2.412479
 66            100          -1.803131     -4.683528      .001515 
 77            100          -3.898317     -9.628613     -2.869583
 88            100          -5.001771     -25.7287      -4.96519 
 0             110           4.678652      3.672071      7.214759
 11            110           4.481623      3.588452      7.068259
 22            110           3.879302      3.312414      6.615401
 33            110           2.842559      2.767127      5.815307
 44            110           1.340841      1.815938      4.595183
 55            110          -.61752        .229884       2.837118
 66            110          -2.89074      -2.430142      .355962 
 77            110          -5.0243       -7.34872      -3.022523
 88            110          -6.156752     -23.43758     -6.076275
 0             120           3.067131      5.104908      7.214759
 11            120           2.875044      5.029649      7.094915
 22            120           2.285655      4.777086      6.717931
 33            120           1.264385      4.266074      6.029859
 44            120          -.227782       3.354139      4.932745
 55            120          -2.193191      1.806307      3.261854
 66            120          -4.499992     -.821743       .727732 
 77            120          -6.690454     -5.718497     -3.167041
 88            120          -7.864043     -21.79812     -7.691958
 0             130           .752248       6.103217      7.214759
 11            130           .563163       6.034509      7.119158
 22            130          -.019254       5.800324      6.81038 
 33            130          -1.035515      5.3161        6.220985
 44            130          -2.534201      4.434781      5.230053
 55            130          -4.530406      2.916705      3.63555 
 66            130          -6.90477       .313516       1.068056
 77            130          -9.193766     -4.566285     -3.280516
 88            130          -10.43603     -20.63874     -10.04015
 0             140          -2.789802      6.75769       7.214759
 11            140          -2.979524      6.693391      7.138092
 22            140          -3.566571      6.471571      6.882044
 33            140          -4.599645      6.005355      6.367635
 44            140          -6.141382      5.144602      5.456144
 55            140          -8.227465      3.646503      3.91981 
 66            140          -10.76122      1.059996      1.336539
 77            140          -13.26936     -3.80843      -3.342637
 88            140          -14.66401     -19.87608     -13.52072
 0             150          -9.314742      7.117101      7.214759
 11            150          -9.515139      7.054848      7.149481
 22            150          -10.14129      6.838764      6.924956
 33            150          -11.26412      6.380908      6.454966
 44            150          -12.98806      5.529703      5.590373
 55            150          -15.42045      4.040881      4.08977 
 66            150          -18.57036      1.462124      1.505017
 77            150          -21.99706     -3.401018     -3.341425
 88            150          -24.10223     -19.46643     -18.18279
 0             160          -19.35766      7.205186      7.214759
 11            160          -19.5085       7.142614      7.151994
 22            160          -19.9531       6.925637      6.934538
 33            160          -20.65812      6.466485      6.474897
 44            160          -21.53443      5.613809      5.622175
 55            160          -22.40244      4.123564      4.133218
 66            160          -23.03469      1.543622      1.558729
 77            160          -23.33268     -3.320328     -3.277236
 88            160          -23.40747     -19.38608     -17.93676
 0             170          -6.531132      7.027464      7.214759
 11            170          -6.701962      6.962465      7.145345
 22            170          -7.217893      6.738687      6.909901
 33            170          -8.084698      6.269633      6.426129
 44            170          -9.294453      5.405652      5.550369
 55            170          -10.79074      3.904428      4.049307
 66            170          -12.40695      1.315318      1.495828
 77            170          -13.79806     -3.554882     -3.162508
 88            170          -14.48436     -19.62328     -13.32402
 0             180          -1.404308      6.572683      7.214759
 11            180          -1.586823      6.503672      7.130323
 22            180          -2.140319      6.26864       6.853834
 33            180          -3.078004      5.783185      6.313898
 44            180          -4.403782      4.900465      5.382454
 55            180          -6.074532      3.381033      3.847372
 66            180          -7.925665      .776715       1.325994
 77            180          -9.567659     -4.103853     -3.017537
 88            180          -10.39812     -20.17664     -9.963585
 0             190           1.629962      5.809812      7.214759
 11            190           1.438461      5.735951      7.108701
 22            190           .85777        5.487311      6.772552
 33            190          -.126179       4.98202       6.14958 
 44            190          -1.519115      4.07663       5.134091
 55            190          -3.280399      2.535174      3.546061
 66            190          -5.244401     -.08753        1.068605
 77            190          -7.002575     -4.980628     -2.86468 
 88            190          -7.899264     -21.05871     -7.694358
 0             200           3.672071      4.678652      7.214759
 11            200           3.472442      4.600046      7.083038
 22            200           2.867804      4.338093      6.675173
 33            200           1.845186      3.813402      5.950152
 44            200           .400116       2.885859      4.828755
 55            200          -1.425666      1.322906      3.172825
 66            200          -3.463878     -1.317722      .750744 
 77            200          -5.294263     -6.223015     -2.723559
 88            200          -6.231044     -22.30624     -6.125129
 0             210           5.104908      3.067131      7.214759
 11            210           4.898161      2.985022      7.056397
 22            210           4.272755      2.713251      6.57293 
 33            210           3.217288      2.174283      5.737322
 44            210           1.729327      1.230485      4.497364
 55            210          -.14733       -.348185       2.763704
 66            210          -2.241473     -3.001864      .405252 
 77            210          -4.124319     -7.91601      -2.608574
 88            210          -5.089657     -24.00297     -5.034235
 0             220           6.103217      .752248       7.214759
 11            220           5.89086       .669408       7.031987
 22            220           5.249093      .395609       6.478058
 33            220           4.167773     -.146249       5.536049
 44            220           2.646081     -1.093244      4.177319
 55            220           .729406      -2.674899      2.362914
 66            220          -1.408841     -5.330971      .068879 
 77            220          -3.333241     -10.24669     -2.528627
 88            220          -4.321304     -26.3343      -4.294069
 0             230           6.75769      -2.789802      7.214759
 11            230           6.541703     -2.867541      7.012781
 22            230           5.889239     -3.127033      6.402392
 33            230           4.790611     -3.648047      5.372073
 44            230           3.245446     -4.571244      3.909905
 55            230           1.299352     -6.129806      2.020941
 66            230          -.873476      -8.766621     -.219781 
 77            230          -2.832429     -13.66923     -2.488252
 88            230          -3.840087     -29.75131     -3.828967
 0             240           7.117101     -9.314742      7.214759
 11            240           6.899765     -9.367845      7.001143
 22            240           6.243063     -9.558813      6.355769
 33            240           5.136678     -9.98152       5.268312
 44            240           3.579066     -10.79465      3.734878
 55            240           1.614166     -12.24858      1.789045
 66            240          -.584891      -14.79977     -.423383 
 77            240          -2.573536     -19.64493     -2.489121
 88            240          -3.599191     -35.70294     -3.596517
 0             250           7.205186     -19.35766      7.214759
 11            250           6.988837     -19.52336      6.998521
 22            250           6.33447      -20.02257      6.344506
 33            250           5.229933     -20.87053      5.240579
 44            250           3.670717     -22.12608      3.682133
 55            250           1.696996     -23.95506      1.708799
 66            250          -.521159      -26.77095     -.510872 
 77            250          -2.536265     -31.76861     -2.531085
 88            250          -3.579394     -47.88394     -3.579233
 0             260           7.027464     -6.531132      7.214759
 11            260           6.814216     -6.656622      7.005251
 22            260           6.168113     -7.051081      6.370283
 33            260           5.073989     -7.771494      5.293873
 44            260           3.522641     -8.926485      3.762967
 55            260           1.548463     -10.71432      1.799026
 66            260          -.683442      -13.5457      -.464383 
 77            260          -2.723502     -18.58255     -2.61225 
 88            260          -3.784567     -34.72177     -3.781068
 0             270           6.572683     -1.404308      7.214759
 11            270           6.364176     -1.510146      7.020506
 22            270           5.730895     -1.84881       6.429773
 33            270           4.653657     -2.486129      5.420813
 44            270           3.117097     -3.543552      3.965512
 55            270           1.148106     -5.233875      2.047295
 66            270          -1.094813     -7.981734     -.285701 
 77            270          -3.160519     -12.96056     -2.728029
 88            270          -4.241137     -29.07498     -4.226892
 0             280           5.809812      1.629962      7.214759
 11            280           5.606993      1.536373      7.042405
 22            280           4.989115      1.232283      6.515159
 33            280           3.932244      .645905       5.603079
 44            280           2.413766     -.352525       4.257547
 55            280           .451763      -1.984753      2.412479
 66            280          -1.803131     -4.683529      .001515 
 77            280          -3.898317     -9.628615     -2.869583
 88            280          -5.00177      -25.7287      -4.965189
 0             290           4.678652      3.672071      7.214759
 11            290           4.481623      3.588452      7.068259
 22            290           3.879302      3.312414      6.615401
 33            290           2.842559      2.767126      5.815307
 44            290           1.340842      1.815938      4.595183
 55            290          -.617519       .229884       2.837118
 66            290          -2.890739     -2.430142      .355962 
 77            290          -5.024299     -7.348721     -3.022522
 88            290          -6.156751     -23.43758     -6.076274
 0             300           3.067131      5.104908      7.214759
 11            300           2.875045      5.029649      7.094915
 22            300           2.285655      4.777085      6.717931
 33            300           1.264385      4.266074      6.029859
 44            300          -.227781       3.354139      4.932745
 55            300          -2.19319       1.806306      3.261854
 66            300          -4.499991     -.821743       .727732 
 77            300          -6.690453     -5.718497     -3.167041
 88            300          -7.864042     -21.79813     -7.691957
 0             310           .752248       6.103217      7.214759
 11            310           .563163       6.034509      7.119158
 22            310          -.019253       5.800324      6.81038 
 33            310          -1.035515      5.3161        6.220985
 44            310          -2.5342        4.43478       5.230053
 55            310          -4.530405      2.916705      3.63555 
 66            310          -6.904769      .313515       1.068056
 77            310          -9.193765     -4.566285     -3.280516
 88            310          -10.43603     -20.63874     -10.04014
 0             320          -2.789802      6.75769       7.214759
 11            320          -2.979524      6.693391      7.138092
 22            320          -3.56657       6.471571      6.882044
 33            320          -4.599645      6.005355      6.367635
 44            320          -6.141381      5.144602      5.456144
 55            320          -8.227464      3.646503      3.91981 
 66            320          -10.76122      1.059996      1.336539
 77            320          -13.26936     -3.80843      -3.342636
 88            320          -14.66401     -19.87608     -13.52071
 0             330          -9.314742      7.117101      7.214759
 11            330          -9.515139      7.054848      7.149481
 22            330          -10.14129      6.838765      6.924956
 33            330          -11.26412      6.380908      6.454966
 44            330          -12.98806      5.529703      5.590373
 55            330          -15.42045      4.040882      4.08977 
 66            330          -18.57036      1.462124      1.505017
 77            330          -21.99706     -3.401018     -3.341425
 88            330          -24.10223     -19.46643     -18.18279
 0             340          -19.35766      7.205186      7.214759
 11            340          -19.5085       7.142614      7.151994
 22            340          -19.95311      6.925637      6.934538
 33            340          -20.65814      6.466485      6.474897
 44            340          -21.53446      5.613809      5.622176
 55            340          -22.40246      4.123565      4.133218
 66            340          -23.03471      1.543622      1.55873 
 77            340          -23.3327      -3.320327     -3.277236
 88            340          -23.40749     -19.38608     -17.93676
 0             350          -6.531132      7.027464      7.214759
 11            350          -6.701962      6.962465      7.145345
 22            350          -7.217894      6.738687      6.909901
 33            350          -8.084699      6.269633      6.426129
 44            350          -9.294455      5.405652      5.550369
 55            350          -10.79074      3.904429      4.049307
 66            350          -12.40695      1.315318      1.495828
 77            350          -13.79806     -3.554882     -3.162508
 88            350          -14.48437     -19.62328     -13.32403
 0             360          -1.404308      6.572683      7.214759
 11            360          -1.586823      6.503673      7.130323
 22            360          -2.140319      6.26864       6.853834
 33            360          -3.078005      5.783185      6.313898
 44            360          -4.403783      4.900465      5.382454
 55            360          -6.074533      3.381033      3.847373
 66            360          -7.925667      .776715       1.325994
 77            360          -9.567661     -4.103853     -3.017537
 88            360          -10.39812     -20.17664     -9.963587

FREQUENCY (MHZ): 14
    WAVE LENGTH =  21.41429  METERS

********************    SOURCE DATA     ********************
PULSE  1      VOLTAGE = ( 1 , 0 J)
              CURRENT = ( 4.309142E-04 ,  3.136103E-03 J)
              IMPEDANCE = ( 43.00184 , -312.9584 J)
              POWER =  2.154571E-04  WATTS

********************    CURRENT DATA    ********************

WIRE NO.  1 :
PULSE         REAL          IMAGINARY     MAGNITUDE     PHASE
 NO.          (AMPS)        (AMPS)        (AMPS)        (DEGREES)
J             -6.633249E-05  8.815457E-03  8.815706E-03  90.43112 
 1             4.309142E-04  3.136103E-03  3.165570E-03  82.1763  
J              4.316139E-04  3.133603E-03  3.163188E-03  82.15758 
WIRE NO.  2 :
PULSE         REAL          IMAGINARY     MAGNITUDE     PHASE
 NO.          (AMPS)        (AMPS)        (AMPS)        (DEGREES)
E              0             0             0             0
 2            -9.695152E-06  2.463318E-05  2.647243E-05  111.4837 
 3            -1.239453E-05  5.223652E-05  5.368685E-05  103.3481 
 4            -8.151090E-06  8.913415E-05  8.950608E-05  95.22502 
 5             3.807460E-06  1.640303E-04  1.640745E-04  88.67029 
 6             8.956219E-06 -3.412715E-04  3.413890E-04 -88.49669 
 7             2.157880E-05 -7.891230E-04  7.894180E-04 -88.43362 
 8             4.057208E-05 -1.190224E-03  1.190915E-03 -88.04767 
 9             6.501555E-05 -1.535124E-03  1.536500E-03 -87.57486 
 10            9.374636E-05 -1.815444E-03  1.817863E-03 -87.04397 
 11            1.253234E-04 -2.026070E-03  2.029943E-03 -86.46046 
 12            1.579552E-04 -2.162747E-03  2.168507E-03 -85.82284 
 13            1.894823E-04 -2.219268E-03  2.227342E-03 -85.11989 
 14            2.175708E-04 -2.189395E-03  2.200179E-03 -84.32487 
 15            2.399484E-04 -2.070268E-03  2.084127E-03 -83.3888  
 16            2.544225E-04 -1.870979E-03  1.888199E-03 -82.25621 
J              2.550165E-04 -1.874569E-03  1.891836E-03 -82.25304 
WIRE NO.  3 :
PULSE         REAL          IMAGINARY     MAGNITUDE     PHASE
 NO.          (AMPS)        (AMPS)        (AMPS)        (DEGREES)
J              2.550231E-04 -1.874598E-03  1.891865E-03 -82.25296 
 19            2.544291E-04 -1.871008E-03  1.888228E-03 -82.25613 
 20            2.399551E-04 -2.070298E-03  2.084157E-03 -83.38871 
 21            2.175773E-04 -2.189425E-03  2.200209E-03 -84.32478 
 22            1.894885E-04 -2.219297E-03  2.227372E-03 -85.1198  
 23            1.579610E-04 -2.162774E-03  2.168535E-03 -85.82275 
 24            1.253285E-04 -2.026095E-03  2.029968E-03 -86.46036 
 25            9.375076E-05 -1.815466E-03  1.817885E-03 -87.04387 
 26            6.501913E-05 -1.535142E-03  1.536518E-03 -87.57475 
 27            4.057477E-05 -1.190238E-03  1.190929E-03 -88.04756 
 28            2.158053E-05 -7.891321E-04  7.894271E-04 -88.43351 
 29            8.956962E-06 -3.412754E-04  3.413929E-04 -88.49659 
 30            3.807153E-06  1.640320E-04  1.640762E-04  88.67041 
 31           -8.151315E-06  8.913521E-05  8.950715E-05  95.2251  
 32           -1.239470E-05  5.223719E-05  5.368754E-05  103.3481 
 33           -9.695253E-06  2.463350E-05  2.647277E-05  111.4836 
E              0             0             0             0
WIRE NO.  4 :
PULSE         REAL          IMAGINARY     MAGNITUDE     PHASE
 NO.          (AMPS)        (AMPS)        (AMPS)        (DEGREES)
E              0             0             0             0
 34            1.424389E-06 -4.049107E-04  4.049132E-04 -89.79845 
 35            8.114789E-06 -7.626461E-04  7.626892E-04 -89.39038 
 36            1.970511E-05 -1.085621E-03  1.085800E-03 -88.96014 
 37            3.585915E-05 -1.369484E-03  1.369953E-03 -88.50009 
 38            5.610874E-05 -1.608819E-03  1.609797E-03 -88.00258 
 39            7.984386E-05 -1.799341E-03  1.801112E-03 -87.45923 
 40            1.063236E-04 -1.938727E-03  1.941640E-03 -86.86093 
 41            1.346845E-04 -2.026702E-03  2.031172E-03 -86.198   
 42            1.639271E-04 -2.064124E-03  2.070623E-03 -85.45926 
 43            1.928948E-04 -2.051429E-03  2.060478E-03 -84.6283  
 44            2.203051E-04 -1.988102E-03  2.000271E-03 -83.67675 
 45            2.448403E-04 -1.873481E-03  1.889412E-03 -82.55436 
 46            2.652382E-04 -1.707216E-03  1.727697E-03 -81.16896 
 47            2.803692E-04 -1.487639E-03  1.513829E-03 -79.32689 
 48            2.897816E-04 -1.180561E-03  1.215606E-03 -76.20878 
J              2.429299E-04 -3.807284E-03  3.815026E-03 -86.3491  
WIRE NO.  5 :
PULSE         REAL          IMAGINARY     MAGNITUDE     PHASE
 NO.          (AMPS)        (AMPS)        (AMPS)        (DEGREES)
J              2.429368E-04 -3.807312E-03  3.815055E-03 -86.34902 
 51            2.897861E-04 -1.180572E-03  1.215617E-03 -76.2087  
 52            2.803740E-04 -1.487652E-03  1.513842E-03 -79.32681 
 53            2.652432E-04 -1.707231E-03  1.727712E-03 -81.16887 
 54            2.448454E-04 -1.873497E-03  1.889428E-03 -82.55427 
 55            2.203102E-04 -1.988119E-03  2.000289E-03 -83.67666 
 56            1.928998E-04 -2.051447E-03  2.060496E-03 -84.62821 
 57            1.639320E-04 -2.064142E-03  2.070642E-03 -85.45916 
 58            1.346891E-04 -2.026720E-03  2.031190E-03 -86.1979  
 59            1.063279E-04 -1.938744E-03  1.941657E-03 -86.86083 
 60            7.984772E-05 -1.799357E-03  1.801128E-03 -87.45913 
 61            5.611211E-05 -1.608833E-03  1.609811E-03 -88.00248 
 62            3.586196E-05 -1.369496E-03  1.369965E-03 -88.49998 
 63            1.970729E-05 -1.085630E-03  1.085809E-03 -88.96003 
 64            8.116297E-06 -7.626529E-04  7.626960E-04 -89.39027 
 65            1.425177E-06 -4.049143E-04  4.049168E-04 -89.79834 
E              0             0             0             0
WIRE NO.  6 :
PULSE         REAL          IMAGINARY     MAGNITUDE     PHASE
 NO.          (AMPS)        (AMPS)        (AMPS)        (DEGREES)
E              0             0             0             0
 66           -4.226196E-05  1.233460E-03  1.234184E-03  91.96235 
 67           -7.440807E-05  2.328168E-03  2.329356E-03  91.83055 
 68           -9.858048E-05  3.316311E-03  3.317776E-03  91.70267 
 69           -1.150215E-04  4.179176E-03  4.180759E-03  91.57653 
 70           -1.238841E-04  4.893904E-03  4.895472E-03  91.45007 
 71           -1.254106E-04  5.439298E-03  5.440744E-03  91.3208  
 72           -1.200765E-04  5.776762E-03  5.778009E-03  91.19079 
J             -6.633249E-05  8.815457E-03  8.815706E-03  90.43112 
WIRE NO.  7 :
PULSE         REAL          IMAGINARY     MAGNITUDE     PHASE
 NO.          (AMPS)        (AMPS)        (AMPS)        (DEGREES)
J             -6.634593E-05  8.815513E-03  8.815763E-03  90.4312  
 75           -1.200871E-04  5.776798E-03  5.778046E-03  91.19088 
 76           -1.254208E-04  5.439332E-03  5.440778E-03  91.3209  
 77           -1.238934E-04  4.893935E-03  4.895503E-03  91.45017 
 78           -1.150295E-04  4.179203E-03  4.180785E-03  91.57663 
 79           -9.858695E-05  3.316332E-03  3.317797E-03  91.70277 
 80           -7.441266E-05  2.328182E-03  2.329371E-03  91.83065 
 81           -4.226441E-05  1.233467E-03  1.234191E-03  91.96246 
E              0             0             0             0

********************     FAR FIELD      ********************

ZENITH ANGLE : INITIAL,INCREMENT,NUMBER: 0 , 11 , 9
AZIMUTH ANGLE: INITIAL,INCREMENT,NUMBER: 0 , 10 , 37

********************    PATTERN DATA    ********************
ZENITH        AZIMUTH       VERTICAL      HORIZONTAL    TOTAL
 ANGLE         ANGLE        PATTERN (DB)  PATTERN (DB)  PATTERN (DB)
 0             0            -14.40628      7.348677      7.377574
 11            0            -14.87108      7.207609      7.234436
 22            0            -16.12733      6.701842      6.724423
 33            0            -17.61023      5.611492      5.632126
 44            0            -18.18738      3.645601      3.673985
 55            0            -17.08389      .530032       .604618 
 66            0            -15.04751     -3.900036     -3.578763
 77            0            -13.30791     -10.14162     -8.432084
 88            0            -12.5263      -26.70267     -12.36338
 0             10           -4.550924      7.089668      7.377574
 11            10           -5.190576      6.93411       7.192533
 22            10           -7.134544      6.386166      6.575067
 33            10           -10.24186      5.228624      5.350144
 44            10           -13.20784      3.173069      3.271866
 55            10           -12.98071     -.046791       .168769 
 66            10           -9.647548     -4.556963     -3.385244
 77            10           -6.53295      -10.78581     -5.148061
 88            10           -5.161519     -27.29607     -5.135034
 0             20           -.211309       6.546188      7.377574
 11            20           -.901583       6.380215      7.124688
 22            20           -3.038506      5.805849      6.338501
 33            20           -6.624718      4.619554      4.933996
 44            20           -10.43337      2.554367      2.767338
 55            20           -10.55851     -.628794      -.208431 
 66            20           -6.674177     -5.045383     -2.773565
 77            20           -3.088891     -11.18788     -2.46338 
 88            20           -1.546756     -27.67758     -1.536183
 0             30            2.477674      5.679602      7.377574
 11            30            1.759056      5.510534      7.038164
 22            30           -.477974       4.933805      6.031689
 33            30           -4.290948      3.766193      4.39734 
 44            30           -8.474937      1.772941      2.164909
 55            30           -8.732321     -1.252125     -.53831  
 66            30           -4.593352     -5.448278     -1.989512
 77            30           -.821994      -11.45431     -.461894 
 88            30            .780725      -27.93538      .786558 
 0             40            4.317067      4.416907      7.377574
 11            40            3.58309       4.255195      6.942431
 22            40            1.29686       3.707136      5.677404
 33            40           -2.608876      2.608778      3.750783
 44            40           -6.910413      .754147       1.440517
 55            40           -7.184915     -2.042223     -.882769 
 66            40           -2.977103     -5.965907     -1.209013
 77            40            .830001      -11.80075      1.06074 
 88            40            2.440971     -28.24977      2.444673
 0             50            5.609694      2.620261      7.377574
 11            50            4.871176      2.480129      6.848467
 22            50            2.574352      2.000242      5.307077
 33            50           -1.334764      1.026456      3.014679
 44            50           -5.603564     -.634899       .56596  
 55            50           -5.851708     -3.171595     -1.297808
 66            50           -1.689296     -6.825176     -.528245 
 77            50            2.076191     -12.4869       2.225467
 88            50            3.670976     -28.88648      3.673386
 0             60            6.499632      .002806       7.377574
 11            60            5.766074     -.09414        6.767729
 22            60            3.489877     -.447641       4.963165
 33            60           -.360909      -1.220015      2.241047
 44            60           -4.516105     -2.618067     -.453911 
 55            60           -4.735341     -4.85737      -1.785627
 66            60           -.680326      -8.239703      .021579 
 77            60            3.010847     -13.73089      3.101849
 88            60            4.580764     -30.07367      4.582251
 0             70            7.062916     -4.178267      7.377574
 11            70            6.342164     -4.184677      6.710752
 22            70            4.11096      -4.285938      4.697677
 33            70            .360784      -4.691106      1.541685
 44            70           -3.637886     -5.661748     -1.522676
 55            70           -3.836111     -7.47139      -2.273697
 66            70            .081621      -10.49027      .446561 
 77            70            3.686845     -15.74804      3.73603 
 88            70            5.229863     -32.00275      5.230685
 0             80            7.339942     -13.2636       7.377574
 11            80            6.637612     -12.91242      6.685517
 22            80            4.468306     -12.10615      4.562844
 33            80            .846095      -11.37465      1.099026
 44            80           -2.970344     -11.21904     -2.364618
 55            80           -3.147445     -12.03552     -2.619816
 66            80            .621537      -14.2663       .760228 
 77            80            4.135568     -19.00233      4.156603
 88            80            5.65075      -35.0413       5.65112 
 0             90            7.348677     -14.40628      7.377574
 11            90            6.667634     -15.17704      6.695942
 22            90            4.568579     -17.80039      4.593677
 33            90            1.087049     -23.7986       1.101126
 44            90           -2.534023     -34.16066     -2.531037
 55            90           -2.679403     -24.29583     -2.649573
 66            90            .943964      -22.1781       .965076 
 77            90            4.365005     -24.84028      4.370217
 88            90            5.851427     -40.11921      5.851537
 0             100           7.089668     -4.550924      7.377574
 11            100           6.429701     -4.860523      6.740949
 22            100           4.399467     -5.853336      4.79101 
 33            100           1.053424     -7.711373      1.595334
 44            100          -2.380028     -10.6968      -1.783104
 55            100          -2.48225      -14.99776     -2.245472
 66            100           1.0161       -20.18528      1.04891 
 77            100           4.351876     -25.83477      4.356034
 88            100           5.811215     -41.66812      5.811292
 0             110           6.546188     -.211309       7.377574
 11            110           5.903945     -.417551       6.81451 
 22            110           3.930416     -1.092541      5.118222
 33            110           .692255      -2.387343      2.430191
 44            110          -2.595183     -4.500831     -.434012 
 55            110          -2.655835     -7.613119     -1.452224
 66            110           .759551      -11.86353      .990688 
 77            110           4.036431     -17.91882      4.064029
 88            110           5.477055     -34.43542      5.477498
 0             120           5.679602      2.477674      7.377574
 11            120           5.048798      2.323158      6.906685
 22            120           3.109058      1.80249       5.515024
 33            120          -.074492       .765319       3.375981
 44            120          -3.302082     -.982588       1.021009
 55            120          -3.347354     -3.633902     -.477965 
 66            120           .051012      -7.425618      .765368 
 77            120           3.32127      -13.21308      3.416675
 88            120           4.761683     -29.67342      4.763247
 0             130           4.416907      4.317067      7.377574
 11            130           3.788746      4.192025      7.005365
 22            130           1.849833      3.757063      5.917613
 33            130          -1.359145      2.856336      4.251464
 44            130          -4.665391      1.290441      2.272572
 55            130          -4.754704     -1.144777      .425313 
 66            130          -1.279948     -4.723826      .341194 
 77            130           2.067063     -10.36505      2.308306
 88            130           3.537973     -26.77251      3.542015
 0             140           2.620261      5.609694      7.377574
 11            140           1.983788      5.499219      7.098196
 22            140           .003456       5.103807      6.273219
 33            140          -3.339333      4.257543      4.953873
 44            140          -6.928581      2.749385      3.193594
 55            140          -7.167766      .364361       1.070344
 66            140          -3.482035     -3.180922     -.31857  
 77            140           .066018      -8.807535      .595311 
 88            140           1.612668     -25.21213      1.621681
 0             150           .002806       6.499632      7.377574
 11            150          -.655707       6.392062      7.17425 
 22            150          -2.732242      5.999942      6.545691
 33            150          -6.360514      5.143014      5.439843
 44            150          -10.55661      3.591975      3.755922
 55            150          -11.14437      1.119131      1.369654
 66            150          -7.019269     -2.54756      -1.221339
 77            150          -3.065141     -8.281847     -1.922916
 88            150          -1.372717     -24.73429     -1.352736
 0             160          -4.178267      7.062916      7.377574
 11            160          -4.881506      6.949221      7.225178
 22            160          -7.150093      6.532834      6.714952
 33            160          -11.36216      5.616843      5.703055
 44            160          -16.91189      3.948483      3.983962
 55            160          -18.39804      1.283211      1.329699
 66            160          -13.25778     -2.625237     -2.265155
 77            160          -8.37156      -8.555447     -5.45223 
 88            160          -6.372672     -25.08424     -6.314632
 0             170          -13.2636       7.339942      7.377574
 11            170          -14.1185       7.21399       7.245828
 22            170          -17.07981      6.75591       6.773829
 33            170          -23.82776      5.753884      5.758663
 44            170          -30.51229      3.93165       3.93321 
 55            170          -27.24052      1.026002      1.032471
 66            170          -33.02104     -3.172618     -3.168123
 77            170          -23.03246     -9.305828     -9.125496
 88            170          -19.12935     -25.88611     -18.29784
 0             180          -14.40628      7.348677      7.377574
 11            180          -14.87111      7.207609      7.234436
 22            180          -16.12739      6.701842      6.724422
 33            180          -17.61029      5.61149       5.632124
 44            180          -18.18743      3.645598      3.673981
 55            180          -17.08391      .530024       .60461  
 66            180          -15.04748     -3.900055     -3.578778
 77            180          -13.30782     -10.14166     -8.432078
 88            180          -12.52619     -26.70271     -12.36327
 0             190          -4.550924      7.089668      7.377574
 11            190          -5.190587      6.934109      7.192531
 22            190          -7.134562      6.386165      6.575065
 33            190          -10.24187      5.228623      5.350142
 44            190          -13.20782      3.173067      3.271864
 55            190          -12.98072     -.046793       .168767 
 66            190          -9.647549     -4.556965     -3.385246
 77            190          -6.532924     -10.78582     -5.148043
 88            190          -5.161481     -27.29608     -5.134996
 0             200          -.211309       6.546188      7.377574
 11            200          -.90159        6.380214      7.124686
 22            200          -3.038518      5.805847      6.338498
 33            200          -6.624718      4.619553      4.933994
 44            200          -10.43333      2.554368      2.76734 
 55            200          -10.55852     -.628788      -.208425 
 66            200          -6.674184     -5.045365     -2.773557
 77            200          -3.088878     -11.18785     -2.463364
 88            200          -1.546734     -27.67754     -1.536162
 0             210           2.477674      5.679602      7.377574
 11            210           1.75905       5.510532      7.038162
 22            210          -.477983       4.933803      6.031685
 33            210          -4.290946      3.766192      4.39734 
 44            210          -8.474898      1.772945      2.164916
 55            210          -8.732318     -1.25211      -.538297 
 66            210          -4.59336      -5.44824      -1.989499
 77            210          -.821986      -11.45424     -.461881 
 88            210           .78074       -27.9353       .786573 
 0             220           4.317067      4.416907      7.377574
 11            220           3.583085      4.255194      6.942428
 22            220           1.296852      3.707134      5.6774  
 33            220          -2.608873      2.608778      3.750784
 44            220          -6.910371      .754153       1.440528
 55            220          -7.184904     -2.042201     -.88275  
 66            220          -2.97711      -5.965855     -1.209   
 77            220           .830006      -11.80066      1.060749
 88            220           2.440981     -28.24966      2.444684
 0             230           5.609694      2.620261      7.377574
 11            230           4.871171      2.480128      6.848464
 22            230           2.574345      2.00024       5.307072
 33            230          -1.33476       1.026456      3.014681
 44            230          -5.60352      -.634891       .565977 
 55            230          -5.851692     -3.171567     -1.297784
 66            230          -1.689301     -6.825114     -.528235 
 77            230           2.076195     -12.4868       2.225474
 88            230           3.670984     -28.88636      3.673394
 0             240           6.499632      .002806       7.377574
 11            240           5.76607      -.094141       6.767725
 22            240           3.48987      -.447642       4.96316 
 33            240          -.360904      -1.220013      2.24105 
 44            240          -4.516061     -2.618056     -.453887 
 55            240          -4.73532      -4.857339     -1.785601
 66            240          -.68033       -8.239639      .021586 
 77            240           3.010849     -13.73079      3.101854
 88            240           4.58077      -30.07355      4.582257
 0             250           7.062916     -4.178267      7.377574
 11            250           6.34216      -4.184678      6.710747
 22            250           4.110954     -4.285938      4.697671
 33            250           .360789      -4.691102      1.541689
 44            250          -3.637842     -5.661735     -1.522644
 55            250          -3.836087     -7.471359     -2.273671
 66            250           .081619      -10.49021      .446564 
 77            250           3.686847     -15.74795      3.736033
 88            250           5.229868     -32.00264      5.23069 
 0             260           7.339942     -13.2636       7.377574
 11            260           6.637608     -12.91242      6.685513
 22            260           4.4683       -12.10615      4.562838
 33            260           .8461        -11.37464      1.099031
 44            260          -2.970303     -11.21902     -2.364579
 55            260          -3.147421     -12.03549     -2.619792
 66            260           .621536      -14.26626      .760228 
 77            260           4.13557      -19.00228      4.156605
 88            260           5.650754     -35.04124      5.651125
 0             270           7.348677     -14.40628      7.377574
 11            270           6.66763      -15.17704      6.695938
 22            270           4.568573     -17.8004       4.593671
 33            270           1.087053     -23.79866      1.10113 
 44            270          -2.533984     -34.16135     -2.530999
 55            270          -2.679379     -24.29591     -2.64955 
 66            270           .943964      -22.17815      .965075 
 77            270           4.365007     -24.84032      4.370219
 88            270           5.851432     -40.11925      5.851542
 0             280           7.089668     -4.550924      7.377574
 11            280           6.429697     -4.860526      6.740945
 22            280           4.399461     -5.853342      4.791005
 33            280           1.053429     -7.711381      1.595337
 44            280          -2.379992     -10.69681     -1.783074
 55            280          -2.482228     -14.99775     -2.245451
 66            280           1.0161       -20.18524      1.04891 
 77            280           4.351879     -25.83469      4.356037
 88            280           5.81122      -41.66804      5.811298
 0             290           6.546188     -.211309       7.377574
 11            290           5.90394      -.417553       6.814507
 22            290           3.930411     -1.092545      5.118217
 33            290           .69226       -2.387347      2.430193
 44            290          -2.595149     -4.50083      -.433991 
 55            290          -2.655815     -7.613103     -1.452204
 66            290           .759552      -11.86347      .990691 
 77            290           4.036435     -17.91873      4.064034
 88            290           5.477061     -34.43529      5.477504
 0             300           5.679602      2.477674      7.377574
 11            300           5.048794      2.323156      6.906682
 22            300           3.109052      1.802487      5.51502 
 33            300          -.074486       .765317       3.375983
 44            300          -3.302048     -.982585       1.021023
 55            300          -3.347334     -3.633886     -.477947 
 66            300           .051014      -7.425578      .765375 
 77            300           3.321276     -13.21301      3.416682
 88            300           4.761692     -29.67333      4.763256
 0             310           4.416907      4.317067      7.377574
 11            310           3.788741      4.192024      7.005362
 22            310           1.849828      3.757061      5.91761 
 33            310          -1.359139      2.856335      4.251465
 44            310          -4.665353      1.290444      2.272583
 55            310          -4.754683     -1.144763      .425329 
 66            310          -1.279946     -4.723791      .341206 
 77            310           2.067071     -10.365        2.308317
 88            310           3.537985     -26.77244      3.542027
 0             320           2.620261      5.609694      7.377574
 11            320           1.983784      5.499218      7.098194
 22            320           .00345        5.103805      6.273216
 33            320          -3.339324      4.257542      4.953874
 44            320          -6.928531      2.749389      3.193603
 55            320          -7.16774       .364375       1.07036 
 66            320          -3.482033     -3.180891     -.318552 
 77            320           .066029      -8.807483      .595326 
 88            320           1.612684     -25.21207      1.621697
 0             330           .002806       6.499632      7.377574
 11            330          -.655713       6.392062      7.174249
 22            330          -2.732248      5.999941      6.545689
 33            330          -6.360499      5.143015      5.439844
 44            330          -10.55652      3.59198       3.755929
 55            330          -11.14433      1.119145      1.369669
 66            330          -7.01927      -2.54753      -1.221316
 77            330          -3.065125     -8.281796     -1.922892
 88            330          -1.372694     -24.73423     -1.352712
 0             340          -4.178267      7.062916      7.377574
 11            340          -4.881514      6.949221      7.225177
 22            340          -7.150102      6.532833      6.714952
 33            340          -11.36212      5.616844      5.703057
 44            340          -16.91166      3.948488      3.983969
 55            340          -18.39794      1.283225      1.329713
 66            340          -13.25781     -2.625207     -2.26513 
 77            340          -8.371537     -8.555395     -5.452193
 88            340          -6.372632     -25.08417     -6.314593
 0             350          -13.2636       7.339942      7.377574
 11            350          -14.11852      7.21399       7.245828
 22            350          -17.07982      6.755911      6.77383 
 33            350          -23.82734      5.753885      5.758665
 44            350          -30.50934      3.931654      3.933216
 55            350          -27.24019      1.026014      1.032483
 66            350          -33.02457     -3.17259      -3.168099
 77            350          -23.03266     -9.305779     -9.125457
 88            350          -19.12928     -25.88605     -18.29777
 0             360          -14.40628      7.348677      7.377574
 11            360          -14.87108      7.207609      7.234436
 22            360          -16.12733      6.701842      6.724423
 33            360          -17.61023      5.611492      5.632126
 44            360          -18.18738      3.645601      3.673985
 55            360          -17.08389      .530032       .604618 
 66            360          -15.04751     -3.900036     -3.578763
 77            360          -13.30791     -10.14162     -8.432084
 88            360          -12.5263      -26.70267     -12.36338
