                   ****************************************
                     MINI-NUMERICAL ELECTROMAGNETICS CODE
                                   MININEC
                   ****************************************

ENVIRONMENT (+1 FOR FREE SPACE, -1 FOR GROUND PLANE): -1
 NUMBER OF MEDIA (0 FOR PERFECTLY CONDUCTING GROUND):  1
 RELATIVE DIELECTRIC CONSTANT, CONDUCTIVITY:  13 , .005

NO. OF WIRES: 3

WIRE NO. 1
            COORDINATES                                 END         NO. OF
   X             Y             Z          RADIUS     CONNECTION     SEGMENTS
-.075          0             10                         0
 .075          0             10            .00075       0              3

WIRE NO. 2
            COORDINATES                                 END         NO. OF
   X             Y             Z          RADIUS     CONNECTION     SEGMENTS
-.075          0             10                        -1
-4.58993       0             7.35          .00075       0            105

WIRE NO. 3
            COORDINATES                                 END         NO. OF
   X             Y             Z          RADIUS     CONNECTION     SEGMENTS
 .075          0             10                         1
 4.58993       0             7.35          .00075       0            105

                  **** ANTENNA GEOMETRY ****

WIRE NO.  1  COORDINATES                                CONNECTION PULSE
X             Y             Z             RADIUS        END1 END2  NO.
-.025          0             10            .00075        0    1   1
 .025          0             10            .00075        1    0   2

WIRE NO.  2  COORDINATES                                CONNECTION PULSE
X             Y             Z             RADIUS        END1 END2  NO.
-.075          0             10            .00075       -1    2   3
-.117999       0             9.974762      .00075        2    2   4
-.160999       0             9.949524      .00075        2    2   5
-.203998       0             9.924286      .00075        2    2   6
-.246997       0             9.899048      .00075        2    2   7
-.289997       0             9.87381       .00075        2    2   8
-.332996       0             9.848571      .00075        2    2   9
-.375995       0             9.823333      .00075        2    2  10
-.418995       0             9.798095      .00075        2    2  11
-.461994       0             9.772857      .00075        2    2  12
-.504993       0             9.747619      .00075        2    2  13
-.547993       0             9.722381      .00075        2    2  14
-.590992       0             9.697143      .00075        2    2  15
-.633991       0             9.671905      .00075        2    2  16
-.676991       0             9.646667      .00075        2    2  17
-.71999        0             9.621429      .00075        2    2  18
-.762989       0             9.59619       .00075        2    2  19
-.805989       0             9.570952      .00075        2    2  20
-.848988       0             9.545714      .00075        2    2  21
-.891987       0             9.520476      .00075        2    2  22
-.934987       0             9.495238      .00075        2    2  23
-.977986       0             9.47          .00075        2    2  24
-1.020985      0             9.444762      .00075        2    2  25
-1.063985      0             9.419524      .00075        2    2  26
-1.106984      0             9.394286      .00075        2    2  27
-1.149983      0             9.369048      .00075        2    2  28
-1.192983      0             9.34381       .00075        2    2  29
-1.235982      0             9.318571      .00075        2    2  30
-1.278981      0             9.293333      .00075        2    2  31
-1.321981      0             9.268095      .00075        2    2  32
-1.36498       0             9.242857      .00075        2    2  33
-1.407979      0             9.217619      .00075        2    2  34
-1.450979      0             9.192381      .00075        2    2  35
-1.493978      0             9.167143      .00075        2    2  36
-1.536977      0             9.141905      .00075        2    2  37
-1.579977      0             9.116667      .00075        2    2  38
-1.622976      0             9.091429      .00075        2    2  39
-1.665975      0             9.06619       .00075        2    2  40
-1.708975      0             9.040952      .00075        2    2  41
-1.751974      0             9.015714      .00075        2    2  42
-1.794973      0             8.990476      .00075        2    2  43
-1.837973      0             8.965238      .00075        2    2  44
-1.880972      0             8.94          .00075        2    2  45
-1.923971      0             8.914762      .00075        2    2  46
-1.966971      0             8.889524      .00075        2    2  47
-2.00997       0             8.864286      .00075        2    2  48
-2.052969      0             8.839048      .00075        2    2  49
-2.095969      0             8.81381       .00075        2    2  50
-2.138968      0             8.788571      .00075        2    2  51
-2.181967      0             8.763333      .00075        2    2  52
-2.224967      0             8.738095      .00075        2    2  53
-2.267966      0             8.712857      .00075        2    2  54
-2.310965      0             8.687619      .00075        2    2  55
-2.353965      0             8.662381      .00075        2    2  56
-2.396964      0             8.637143      .00075        2    2  57
-2.439963      0             8.611905      .00075        2    2  58
-2.482963      0             8.586667      .00075        2    2  59
-2.525962      0             8.561429      .00075        2    2  60
-2.568961      0             8.53619       .00075        2    2  61
-2.611961      0             8.510952      .00075        2    2  62
-2.65496       0             8.485714      .00075        2    2  63
-2.697959      0             8.460476      .00075        2    2  64
-2.740959      0             8.435238      .00075        2    2  65
-2.783958      0             8.41          .00075        2    2  66
-2.826957      0             8.384762      .00075        2    2  67
-2.869957      0             8.359524      .00075        2    2  68
-2.912956      0             8.334286      .00075        2    2  69
-2.955955      0             8.309048      .00075        2    2  70
-2.998955      0             8.28381       .00075        2    2  71
-3.041954      0             8.258571      .00075        2    2  72
-3.084953      0             8.233333      .00075        2    2  73
-3.127953      0             8.208095      .00075        2    2  74
-3.170952      0             8.182857      .00075        2    2  75
-3.213951      0             8.157619      .00075        2    2  76
-3.256951      0             8.132381      .00075        2    2  77
-3.29995       0             8.107143      .00075        2    2  78
-3.342949      0             8.081905      .00075        2    2  79
-3.385949      0             8.056667      .00075        2    2  80
-3.428948      0             8.031429      .00075        2    2  81
-3.471947      0             8.00619       .00075        2    2  82
-3.514947      0             7.980952      .00075        2    2  83
-3.557946      0             7.955714      .00075        2    2  84
-3.600945      0             7.930476      .00075        2    2  85
-3.643945      0             7.905238      .00075        2    2  86
-3.686944      0             7.88          .00075        2    2  87
-3.729943      0             7.854762      .00075        2    2  88
-3.772943      0             7.829524      .00075        2    2  89
-3.815942      0             7.804286      .00075        2    2  90
-3.858941      0             7.779048      .00075        2    2  91
-3.901941      0             7.75381       .00075        2    2  92
-3.94494       0             7.728571      .00075        2    2  93
-3.987939      0             7.703333      .00075        2    2  94
-4.030939      0             7.678095      .00075        2    2  95
-4.073938      0             7.652857      .00075        2    2  96
-4.116937      0             7.627619      .00075        2    2  97
-4.159937      0             7.602381      .00075        2    2  98
-4.202936      0             7.577143      .00075        2    2  99
-4.245935      0             7.551905      .00075        2    2 100
-4.288935      0             7.526667      .00075        2    2 101
-4.331934      0             7.501429      .00075        2    2 102
-4.374933      0             7.47619       .00075        2    2 103
-4.417933      0             7.450952      .00075        2    2 104
-4.460932      0             7.425714      .00075        2    2 105
-4.503931      0             7.400476      .00075        2    2 106
-4.546931      0             7.375238      .00075        2    0 107

WIRE NO.  3  COORDINATES                                CONNECTION PULSE
X             Y             Z             RADIUS        END1 END2  NO.
 .075          0             10            .00075        1    3 108
 .117999       0             9.974762      .00075        3    3 109
 .160999       0             9.949524      .00075        3    3 110
 .203998       0             9.924286      .00075        3    3 111
 .246997       0             9.899048      .00075        3    3 112
 .289997       0             9.87381       .00075        3    3 113
 .332996       0             9.848571      .00075        3    3 114
 .375995       0             9.823333      .00075        3    3 115
 .418995       0             9.798095      .00075        3    3 116
 .461994       0             9.772857      .00075        3    3 117
 .504993       0             9.747619      .00075        3    3 118
 .547993       0             9.722381      .00075        3    3 119
 .590992       0             9.697143      .00075        3    3 120
 .633991       0             9.671905      .00075        3    3 121
 .676991       0             9.646667      .00075        3    3 122
 .71999        0             9.621429      .00075        3    3 123
 .762989       0             9.59619       .00075        3    3 124
 .805989       0             9.570952      .00075        3    3 125
 .848988       0             9.545714      .00075        3    3 126
 .891987       0             9.520476      .00075        3    3 127
 .934987       0             9.495238      .00075        3    3 128
 .977986       0             9.47          .00075        3    3 129
 1.020985      0             9.444762      .00075        3    3 130
 1.063985      0             9.419524      .00075        3    3 131
 1.106984      0             9.394286      .00075        3    3 132
 1.149983      0             9.369048      .00075        3    3 133
 1.192983      0             9.34381       .00075        3    3 134
 1.235982      0             9.318571      .00075        3    3 135
 1.278981      0             9.293333      .00075        3    3 136
 1.321981      0             9.268095      .00075        3    3 137
 1.36498       0             9.242857      .00075        3    3 138
 1.407979      0             9.217619      .00075        3    3 139
 1.450979      0             9.192381      .00075        3    3 140
 1.493978      0             9.167143      .00075        3    3 141
 1.536977      0             9.141905      .00075        3    3 142
 1.579977      0             9.116667      .00075        3    3 143
 1.622976      0             9.091429      .00075        3    3 144
 1.665975      0             9.06619       .00075        3    3 145
 1.708975      0             9.040952      .00075        3    3 146
 1.751974      0             9.015714      .00075        3    3 147
 1.794973      0             8.990476      .00075        3    3 148
 1.837973      0             8.965238      .00075        3    3 149
 1.880972      0             8.94          .00075        3    3 150
 1.923971      0             8.914762      .00075        3    3 151
 1.966971      0             8.889524      .00075        3    3 152
 2.00997       0             8.864286      .00075        3    3 153
 2.052969      0             8.839048      .00075        3    3 154
 2.095969      0             8.81381       .00075        3    3 155
 2.138968      0             8.788571      .00075        3    3 156
 2.181967      0             8.763333      .00075        3    3 157
 2.224967      0             8.738095      .00075        3    3 158
 2.267966      0             8.712857      .00075        3    3 159
 2.310965      0             8.687619      .00075        3    3 160
 2.353965      0             8.662381      .00075        3    3 161
 2.396964      0             8.637143      .00075        3    3 162
 2.439963      0             8.611905      .00075        3    3 163
 2.482963      0             8.586667      .00075        3    3 164
 2.525962      0             8.561429      .00075        3    3 165
 2.568961      0             8.53619       .00075        3    3 166
 2.611961      0             8.510952      .00075        3    3 167
 2.65496       0             8.485714      .00075        3    3 168
 2.697959      0             8.460476      .00075        3    3 169
 2.740959      0             8.435238      .00075        3    3 170
 2.783958      0             8.41          .00075        3    3 171
 2.826957      0             8.384762      .00075        3    3 172
 2.869957      0             8.359524      .00075        3    3 173
 2.912956      0             8.334286      .00075        3    3 174
 2.955955      0             8.309048      .00075        3    3 175
 2.998955      0             8.28381       .00075        3    3 176
 3.041954      0             8.258571      .00075        3    3 177
 3.084953      0             8.233333      .00075        3    3 178
 3.127953      0             8.208095      .00075        3    3 179
 3.170952      0             8.182857      .00075        3    3 180
 3.213951      0             8.157619      .00075        3    3 181
 3.256951      0             8.132381      .00075        3    3 182
 3.29995       0             8.107143      .00075        3    3 183
 3.342949      0             8.081905      .00075        3    3 184
 3.385949      0             8.056667      .00075        3    3 185
 3.428948      0             8.031429      .00075        3    3 186
 3.471947      0             8.00619       .00075        3    3 187
 3.514947      0             7.980952      .00075        3    3 188
 3.557946      0             7.955714      .00075        3    3 189
 3.600945      0             7.930476      .00075        3    3 190
 3.643945      0             7.905238      .00075        3    3 191
 3.686944      0             7.88          .00075        3    3 192
 3.729943      0             7.854762      .00075        3    3 193
 3.772943      0             7.829524      .00075        3    3 194
 3.815942      0             7.804286      .00075        3    3 195
 3.858941      0             7.779048      .00075        3    3 196
 3.901941      0             7.75381       .00075        3    3 197
 3.94494       0             7.728571      .00075        3    3 198
 3.987939      0             7.703333      .00075        3    3 199
 4.030939      0             7.678095      .00075        3    3 200
 4.073938      0             7.652857      .00075        3    3 201
 4.116937      0             7.627619      .00075        3    3 202
 4.159937      0             7.602381      .00075        3    3 203
 4.202936      0             7.577143      .00075        3    3 204
 4.245935      0             7.551905      .00075        3    3 205
 4.288935      0             7.526667      .00075        3    3 206
 4.331934      0             7.501429      .00075        3    3 207
 4.374933      0             7.47619       .00075        3    3 208
 4.417933      0             7.450952      .00075        3    3 209
 4.460932      0             7.425714      .00075        3    3 210
 4.503931      0             7.400476      .00075        3    3 211
 4.546931      0             7.375238      .00075        3    0 212

NO. OF SOURCES :  1
PULSE NO., VOLTAGE MAGNITUDE, PHASE (DEGREES):  1 , 1 , 0
NUMBER OF LOADS 0

FREQUENCY (MHZ): 13
    WAVE LENGTH =  23.06154  METERS

********************    SOURCE DATA     ********************
PULSE  1      VOLTAGE = ( 1 , 0 J)
              CURRENT = ( 4.227397E-03 ,  7.242489E-03 J)
              IMPEDANCE = ( 60.1127  , -102.9867 J)
              POWER =  2.113699E-03  WATTS

********************    CURRENT DATA    ********************

WIRE NO.  1 :
PULSE         REAL          IMAGINARY     MAGNITUDE     PHASE
 NO.          (AMPS)        (AMPS)        (AMPS)        (DEGREES)
J              4.226523E-03  7.213214E-03  8.360260E-03  59.63218 
 1             4.227397E-03  7.242489E-03  8.385973E-03  59.72815 
 2             4.227396E-03  7.214387E-03  8.361714E-03  59.63109 
J              4.226518E-03  7.191444E-03  8.341482E-03  59.55662 
WIRE NO.  2 :
PULSE         REAL          IMAGINARY     MAGNITUDE     PHASE
 NO.          (AMPS)        (AMPS)        (AMPS)        (DEGREES)
J             -4.226523E-03 -7.213214E-03  8.360260E-03 -120.3678 
 4            -4.224843E-03 -7.189028E-03  8.338550E-03 -120.4419 
 5            -4.222321E-03 -7.165376E-03  8.316887E-03 -120.5095 
 6            -4.218964E-03 -7.141568E-03  8.294676E-03 -120.573  
 7            -4.214772E-03 -7.117273E-03  8.271630E-03 -120.6336 
 8            -4.209747E-03 -7.092310E-03  8.247596E-03 -120.6919 
 9            -4.203890E-03 -7.066569E-03  8.222475E-03 -120.7483 
 10           -4.197204E-03 -7.039977E-03  8.196206E-03 -120.8032 
 11           -4.189691E-03 -7.012483E-03  8.168747E-03 -120.8567 
 12           -4.181350E-03 -6.984050E-03  8.140064E-03 -120.909  
 13           -4.172184E-03 -6.954648E-03  8.110133E-03 -120.9601 
 14           -4.162193E-03 -6.924258E-03  8.078935E-03 -121.0102 
 15           -4.151378E-03 -6.892861E-03  8.046457E-03 -121.0594 
 16           -4.139742E-03 -6.860446E-03  8.012689E-03 -121.1077 
 17           -4.127285E-03 -6.827002E-03  7.977621E-03 -121.1552 
 18           -4.114008E-03 -6.792523E-03  7.941249E-03 -121.2019 
 19           -4.099915E-03 -6.757002E-03  7.903567E-03 -121.2479 
 20           -4.085005E-03 -6.720436E-03  7.864574E-03 -121.2933 
 21           -4.069282E-03 -6.682822E-03  7.824268E-03 -121.3379 
 22           -4.052747E-03 -6.644159E-03  7.782648E-03 -121.382  
 23           -4.035402E-03 -6.604447E-03  7.739715E-03 -121.4255 
 24           -4.017250E-03 -6.563684E-03  7.695469E-03 -121.4684 
 25           -3.998293E-03 -6.521874E-03  7.649914E-03 -121.5108 
 26           -3.978534E-03 -6.479017E-03  7.603051E-03 -121.5526 
 27           -3.957975E-03 -6.435116E-03  7.554884E-03 -121.594  
 28           -3.936619E-03 -6.390173E-03  7.505417E-03 -121.6348 
 29           -3.914469E-03 -6.344193E-03  7.454653E-03 -121.6753 
 30           -3.891529E-03 -6.297178E-03  7.402597E-03 -121.7152 
 31           -3.867800E-03 -6.249134E-03  7.349256E-03 -121.7548 
 32           -3.843288E-03 -6.200065E-03  7.294633E-03 -121.7939 
 33           -3.817994E-03 -6.149976E-03  7.238735E-03 -121.8326 
 34           -3.791923E-03 -6.098872E-03  7.181568E-03 -121.8709 
 35           -3.765079E-03 -6.046759E-03  7.123139E-03 -121.9089 
 36           -3.737464E-03 -5.993643E-03  7.063455E-03 -121.9465 
 37           -3.709084E-03 -5.939530E-03  7.002522E-03 -121.9837 
 38           -3.679941E-03 -5.884427E-03  6.940349E-03 -122.0206 
 39           -3.650041E-03 -5.828340E-03  6.876944E-03 -122.0572 
 40           -3.619387E-03 -5.771277E-03  6.812313E-03 -122.0934 
 41           -3.587984E-03 -5.713245E-03  6.746466E-03 -122.1293 
 42           -3.555837E-03 -5.654251E-03  6.679411E-03 -122.1649 
 43           -3.522949E-03 -5.594302E-03  6.611157E-03 -122.2002 
 44           -3.489326E-03 -5.533408E-03  6.541712E-03 -122.2352 
 45           -3.454973E-03 -5.471575E-03  6.471087E-03 -122.27   
 46           -3.419894E-03 -5.408812E-03  6.399291E-03 -122.3044 
 47           -3.384094E-03 -5.345128E-03  6.326333E-03 -122.3386 
 48           -3.347578E-03 -5.280531E-03  6.252222E-03 -122.3725 
 49           -3.310352E-03 -5.215029E-03  6.176970E-03 -122.4062 
 50           -3.272421E-03 -5.148632E-03  6.100587E-03 -122.4396 
 51           -3.233790E-03 -5.081349E-03  6.023081E-03 -122.4728 
 52           -3.194465E-03 -5.013189E-03  5.944466E-03 -122.5058 
 53           -3.154451E-03 -4.944161E-03  5.864750E-03 -122.5385 
 54           -3.113754E-03 -4.874274E-03  5.783944E-03 -122.571  
 55           -3.072379E-03 -4.803538E-03  5.702061E-03 -122.6033 
 56           -3.030332E-03 -4.731963E-03  5.619110E-03 -122.6354 
 57           -2.987620E-03 -4.659559E-03  5.535103E-03 -122.6672 
 58           -2.944247E-03 -4.586334E-03  5.450051E-03 -122.6989 
 59           -2.900220E-03 -4.512300E-03  5.363965E-03 -122.7303 
 60           -2.855544E-03 -4.437465E-03  5.276858E-03 -122.7616 
 61           -2.810226E-03 -4.361841E-03  5.188740E-03 -122.7927 
 62           -2.764272E-03 -4.285436E-03  5.099624E-03 -122.8236 
 63           -2.717688E-03 -4.208261E-03  5.009520E-03 -122.8543 
 64           -2.670479E-03 -4.130327E-03  4.918440E-03 -122.8848 
 65           -2.622652E-03 -4.051642E-03  4.826397E-03 -122.9152 
 66           -2.574214E-03 -3.972218E-03  4.733401E-03 -122.9454 
 67           -2.525169E-03 -3.892064E-03  4.639465E-03 -122.9755 
 68           -2.475525E-03 -3.811190E-03  4.544600E-03 -123.0054 
 69           -2.425286E-03 -3.729607E-03  4.448818E-03 -123.0351 
 70           -2.374460E-03 -3.647323E-03  4.352129E-03 -123.0647 
 71           -2.323053E-03 -3.564350E-03  4.254546E-03 -123.0942 
 72           -2.271069E-03 -3.480696E-03  4.156080E-03 -123.1235 
 73           -2.218515E-03 -3.396372E-03  4.056741E-03 -123.1526 
 74           -2.165396E-03 -3.311386E-03  3.956541E-03 -123.1817 
 75           -2.111719E-03 -3.225748E-03  3.855491E-03 -123.2106 
 76           -2.057488E-03 -3.139467E-03  3.753599E-03 -123.2393 
 77           -2.002709E-03 -3.052551E-03  3.650878E-03 -123.268  
 78           -1.947387E-03 -2.965008E-03  3.547336E-03 -123.2965 
 79           -1.891527E-03 -2.876848E-03  3.442983E-03 -123.3249 
 80           -1.835133E-03 -2.788077E-03  3.337827E-03 -123.3532 
 81           -1.778209E-03 -2.698703E-03  3.231876E-03 -123.3814 
 82           -1.720760E-03 -2.608731E-03  3.125139E-03 -123.4095 
 83           -1.662788E-03 -2.518169E-03  3.017621E-03 -123.4374 
 84           -1.604297E-03 -2.427020E-03  2.909330E-03 -123.4653 
 85           -1.545290E-03 -2.335291E-03  2.800268E-03 -123.4931 
 86           -1.485767E-03 -2.242983E-03  2.690441E-03 -123.5208 
 87           -1.425730E-03 -2.150099E-03  2.579851E-03 -123.5483 
 88           -1.365179E-03 -2.056640E-03  2.468498E-03 -123.5758 
 89           -1.304112E-03 -1.962605E-03  2.356381E-03 -123.6033 
 90           -1.242529E-03 -1.867992E-03  2.243496E-03 -123.6306 
 91           -1.180424E-03 -1.772796E-03  2.129837E-03 -123.6578 
 92           -1.117792E-03 -1.677009E-03  2.015395E-03 -123.685  
 93           -1.054625E-03 -1.580621E-03  1.900157E-03 -123.7121 
 94           -9.909135E-04 -1.483616E-03  1.784104E-03 -123.7391 
 95           -9.266427E-04 -1.385976E-03  1.667212E-03 -123.7661 
 96           -8.617948E-04 -1.287675E-03  1.549450E-03 -123.793  
 97           -7.963464E-04 -1.188678E-03  1.430777E-03 -123.8198 
 98           -7.302671E-04 -1.088943E-03  1.311139E-03 -123.8466 
 99           -6.635170E-04 -9.884105E-04  1.190466E-03 -123.8733 
 100          -5.960437E-04 -8.870054E-04  1.068666E-03 -123.9    
 101          -5.277764E-04 -7.846246E-04  9.456129E-04 -123.9267 
 102          -4.586178E-04 -6.811257E-04  8.211349E-04 -123.9533 
 103          -3.884287E-04 -5.763053E-04  6.949854E-04 -123.9799 
 104          -3.169997E-04 -4.698567E-04  5.667929E-04 -124.0065 
 105          -2.439910E-04 -3.612814E-04  4.359540E-04 -124.0331 
 106          -1.687786E-04 -2.496625E-04  3.013595E-04 -124.0598 
 107          -8.994043E-05 -1.329081E-04  1.604800E-04 -124.0867 
E              0             0             0             0
WIRE NO.  3 :
PULSE         REAL          IMAGINARY     MAGNITUDE     PHASE
 NO.          (AMPS)        (AMPS)        (AMPS)        (DEGREES)
J              4.226518E-03  7.191444E-03  8.341482E-03  59.55662 
 109           4.224835E-03  7.169216E-03  8.321472E-03  59.48906 
 110           4.222310E-03  7.146709E-03  8.300804E-03  59.4252  
 111           4.218949E-03  7.123675E-03  8.279268E-03  59.36414 
 112           4.214754E-03  7.099956E-03  8.256727E-03  59.30532 
 113           4.209727E-03  7.075449E-03  8.233091E-03  59.24834 
 114           4.203867E-03  7.050083E-03  8.208299E-03  59.19296 
 115           4.197179E-03  7.023810E-03  8.182311E-03  59.13896 
 116           4.189662E-03  6.996594E-03  8.155096E-03  59.08621 
 117           4.181319E-03  6.968408E-03  8.126631E-03  59.03459 
 118           4.172150E-03  6.939230E-03  8.096897E-03  58.98399 
 119           4.162156E-03  6.909044E-03  8.065881E-03  58.93434 
 120           4.151339E-03  6.877837E-03  8.033571E-03  58.88557 
 121           4.139700E-03  6.845600E-03  7.999960E-03  58.83763 
 122           4.127241E-03  6.812324E-03  7.965041E-03  58.79046 
 123           4.113962E-03  6.778005E-03  7.928810E-03  58.74402 
 124           4.099866E-03  6.742637E-03  7.891265E-03  58.69827 
 125           4.084954E-03  6.706219E-03  7.852403E-03  58.65318 
 126           4.069229E-03  6.668749E-03  7.812224E-03  58.60872 
 127           4.052692E-03  6.630226E-03  7.770727E-03  58.56485 
 128           4.035345E-03  6.590650E-03  7.727915E-03  58.52156 
 129           4.017191E-03  6.550022E-03  7.683788E-03  58.47881 
 130           3.998232E-03  6.508343E-03  7.638350E-03  58.43659 
 131           3.978471E-03  6.465617E-03  7.591602E-03  58.39488 
 132           3.957910E-03  6.421844E-03  7.543549E-03  58.35365 
 133           3.936552E-03  6.377030E-03  7.494195E-03  58.31289 
 134           3.914401E-03  6.331177E-03  7.443544E-03  58.27259 
 135           3.891459E-03  6.284290E-03  7.391600E-03  58.23272 
 136           3.867729E-03  6.236373E-03  7.338370E-03  58.19327 
 137           3.843214E-03  6.187430E-03  7.283858E-03  58.15424 
 138           3.817919E-03  6.137468E-03  7.228072E-03  58.1156  
 139           3.791847E-03  6.086491E-03  7.171016E-03  58.07734 
 140           3.765001E-03  6.034505E-03  7.112699E-03  58.03946 
 141           3.737385E-03  5.981517E-03  7.053127E-03  58.00194 
 142           3.709004E-03  5.927532E-03  6.992306E-03  57.96477 
 143           3.679860E-03  5.872558E-03  6.930246E-03  57.92794 
 144           3.649959E-03  5.816601E-03  6.866953E-03  57.89144 
 145           3.619304E-03  5.759668E-03  6.802437E-03  57.85526 
 146           3.587900E-03  5.701767E-03  6.736704E-03  57.81939 
 147           3.555752E-03  5.642905E-03  6.669764E-03  57.78383 
 148           3.522863E-03  5.583090E-03  6.601625E-03  57.74856 
 149           3.489240E-03  5.522329E-03  6.532298E-03  57.71358 
 150           3.454885E-03  5.460631E-03  6.461790E-03  57.67888 
 151           3.419806E-03  5.398005E-03  6.390111E-03  57.64446 
 152           3.384005E-03  5.334458E-03  6.317272E-03  57.6103  
 153           3.347489E-03  5.269998E-03  6.243282E-03  57.5764  
 154           3.310263E-03  5.204636E-03  6.168150E-03  57.54275 
 155           3.272331E-03  5.138380E-03  6.091888E-03  57.50934 
 156           3.233700E-03  5.071238E-03  6.014505E-03  57.47618 
 157           3.194374E-03  5.003221E-03  5.936013E-03  57.44325 
 158           3.154360E-03  4.934337E-03  5.856421E-03  57.41055 
 159           3.113663E-03  4.864595E-03  5.775741E-03  57.37807 
 160           3.072288E-03  4.794006E-03  5.693983E-03  57.3458  
 161           3.030241E-03  4.722579E-03  5.611159E-03  57.31375 
 162           2.987529E-03  4.650323E-03  5.527280E-03  57.28191 
 163           2.944156E-03  4.577248E-03  5.442358E-03  57.25026 
 164           2.900129E-03  4.503365E-03  5.356402E-03  57.21881 
 165           2.855453E-03  4.428683E-03  5.269426E-03  57.18755 
 166           2.810136E-03  4.353212E-03  5.181440E-03  57.15648 
 167           2.764182E-03  4.276962E-03  5.092456E-03  57.12559 
 168           2.717598E-03  4.199944E-03  5.002486E-03  57.09488 
 169           2.670390E-03  4.122166E-03  4.911541E-03  57.06434 
 170           2.622564E-03  4.043640E-03  4.819634E-03  57.03397 
 171           2.574126E-03  3.964376E-03  4.726775E-03  57.00376 
 172           2.525082E-03  3.884382E-03  4.632976E-03  56.97371 
 173           2.475438E-03  3.803671E-03  4.538249E-03  56.94382 
 174           2.425201E-03  3.722251E-03  4.442606E-03  56.91408 
 175           2.374376E-03  3.640132E-03  4.346058E-03  56.8845  
 176           2.322969E-03  3.557324E-03  4.248616E-03  56.85505 
 177           2.270986E-03  3.473837E-03  4.150292E-03  56.82575 
 178           2.218433E-03  3.389680E-03  4.051096E-03  56.79658 
 179           2.165316E-03  3.304864E-03  3.951040E-03  56.76755 
 180           2.111640E-03  3.219396E-03  3.850134E-03  56.73865 
 181           2.057411E-03  3.133285E-03  3.748388E-03  56.70988 
 182           2.002633E-03  3.046542E-03  3.645813E-03  56.68123 
 183           1.947312E-03  2.959173E-03  3.542419E-03  56.6527  
 184           1.891453E-03  2.871187E-03  3.438213E-03  56.62429 
 185           1.835061E-03  2.782592E-03  3.333206E-03  56.59599 
 186           1.778139E-03  2.693394E-03  3.227406E-03  56.5678  
 187           1.720691E-03  2.603600E-03  3.120819E-03  56.53972 
 188           1.662721E-03  2.513217E-03  3.013453E-03  56.51174 
 189           1.604232E-03  2.422248E-03  2.905314E-03  56.48387 
 190           1.545226E-03  2.330699E-03  2.796406E-03  56.45609 
 191           1.485705E-03  2.238573E-03  2.686733E-03  56.4284  
 192           1.425670E-03  2.145873E-03  2.576297E-03  56.40081 
 193           1.365121E-03  2.052598E-03  2.465099E-03  56.37331 
 194           1.304057E-03  1.958748E-03  2.353138E-03  56.34589 
 195           1.242476E-03  1.864321E-03  2.240411E-03  56.31856 
 196           1.180373E-03  1.769312E-03  2.126910E-03  56.2913  
 197           1.117743E-03  1.673714E-03  2.012627E-03  56.26412 
 198           1.054579E-03  1.577515E-03  1.897549E-03  56.23702 
 199           9.908698E-04  1.480701E-03  1.781656E-03  56.20998 
 200           9.266015E-04  1.383253E-03  1.664926E-03  56.18301 
 201           8.617563E-04  1.285145E-03  1.547327E-03  56.1561  
 202           7.963105E-04  1.186343E-03  1.428818E-03  56.12925 
 203           7.302339E-04  1.086803E-03  1.309344E-03  56.10246 
 204           6.634867E-04  9.864687E-04  1.188838E-03  56.07571 
 205           5.960162E-04  8.852629E-04  1.067205E-03  56.04901 
 206           5.277519E-04  7.830832E-04  9.443206E-04  56.02235 
 207           4.585964E-04  6.797877E-04  8.200134E-04  55.99572 
 208           3.884104E-04  5.751731E-04  6.940366E-04  55.96912 
 209           3.169847E-04  4.689337E-04  5.660195E-04  55.94252 
 210           2.439794E-04  3.605716E-04  4.353594E-04  55.9159  
 211           1.687705E-04  2.491720E-04  3.009488E-04  55.88922 
 212           8.993609E-05  1.326469E-04  1.602614E-04  55.86229 
E              0             0             0             0

********************     FAR FIELD      ********************

ZENITH ANGLE : INITIAL,INCREMENT,NUMBER: 0 , 5 , 19
AZIMUTH ANGLE: INITIAL,INCREMENT,NUMBER: 0 , 5 , 73

********************    PATTERN DATA    ********************
ZENITH        AZIMUTH       VERTICAL      HORIZONTAL    TOTAL
 ANGLE         ANGLE        PATTERN (DB)  PATTERN (DB)  PATTERN (DB)
 0             0             .387682      -999           .387682 
 5             0             .417197      -999           .417197 
 10            0             .498279      -999           .498279 
 15            0             .610645      -999           .610645 
 20            0             .723698      -999           .723698 
 25            0             .800312      -999           .800312 
 30            0             .800545      -999           .800545 
 35            0             .684514      -999           .684514 
 40            0             .414169      -999           .414169 
 45            0            -.045874      -999          -.045874 
 50            0            -.728002      -999          -.728002 
 55            0            -1.66131      -999          -1.66131 
 60            0            -2.871153     -999          -2.871153
 65            0            -4.3795       -999          -4.3795  
 70            0            -6.211592     -999          -6.211592
 75            0            -8.430844     -999          -8.430844
 80            0            -11.28878     -999          -11.28878
 85            0            -15.9888      -999          -15.9888 
 90            0            -999          -999          -999     
 0             5             .354566      -20.8064       .387682 
 5             5             .384172      -20.71453      .417763 
 10            5             .465521      -20.44708      .500577 
 15            5             .578317      -20.02703      .615932 
 20            5             .69194       -19.49048      .733385 
 25            5             .769239      -18.88285      .816037 
 30            5             .770238      -18.2542       .824268 
 35            5             .655023      -17.65501      .718643 
 40            5             .385507      -17.13391      .46172  
 45            5            -.07373       -16.73737      .018905 
 50            5            -.755115      -16.51153     -.641238 
 55            5            -1.687784     -16.50577     -1.54688 
 60            5            -2.897131     -16.77874     -2.722995
 65            5            -4.405155     -17.40909     -4.192959
 70            5            -6.237112     -18.51714     -5.987513
 75            5            -8.456387     -20.31724     -8.182279
 80            5            -11.31444     -23.27842     -11.04657
 85            5            -16.01456     -28.88143     -15.79573
 90            5            -999          -999          -999     
 0             10            .254711      -14.81891      .387682 
 5             10            .284585      -14.72678      .419446 
 10            10            .366727      -14.45854      .507398 
 15            10            .480799      -14.03723      .631605 
 20            10            .596117      -13.49901      .762056 
 25            10            .675446      -12.8894       .862477 
 30            10            .678721      -12.25854      .89412  
 35            10            .565928      -11.65702      .818734 
 40            10            .298874      -11.1335       .600439 
 45            10           -.157973      -10.73455      .206589 
 50            10           -.837153      -10.50637     -.392092 
 55            10           -1.767925     -10.4984      -1.221974
 60            10           -2.975799     -10.76933     -2.308046
 65            10           -4.482867     -11.39787     -3.678516
 70            10           -6.314418     -12.5044      -5.378669
 75            10           -8.533759     -14.30326     -7.513265
 80            10           -11.39213     -17.26354     -10.39278
 85            10           -16.09256     -22.866       -15.26395
 90            10           -999          -999          -999     
 0             15            .086557      -11.35239      .387682 
 5             15            .116869      -11.25982      .422192 
 10            15            .200307      -10.99029      .518519 
 15            15            .316462      -10.56692      .657108 
 20            15            .434545      -10.02598      .808566 
 25            15            .517189      -9.413149      .937495 
 30            15            .524178      -8.778693      1.006311
 35            15            .415335      -8.173336      .97828  
 40            15            .152296      -7.645882      .819387 
 45            15           -.300651      -7.243007      .499088 
 50            15           -.976237      -7.011013     -.009968 
 55            15           -1.903915     -6.999429     -.733361 
 60            15           -3.109385     -7.26705      -1.698295
 65            15           -4.614891     -7.892647     -2.941313
 70            15           -6.445778     -8.996662     -4.526265
 75            15           -8.665223     -10.79352     -6.589981
 80            15           -11.52411     -13.75233     -9.48656 
 85            15           -16.22504     -19.3539      -14.50329
 90            15           -999          -999          -999     
 0             20           -.152602      -8.931285      .387682 
 5             20           -.121696      -8.838117      .425917 
 10            20           -.0365        -8.566837      .533578 
 15            20            .082481      -8.140666      .691542 
 20            20            .204316      -7.596048      .871096 
 25            20            .291455      -6.978835      1.037743
 30            20            .303478      -6.339501      1.155034
 35            20            .19999       -5.728955      1.187576
 40            20           -.057607      -5.196168      1.102814
 45            20           -.505271      -4.787971      .871491 
 50            20           -1.175988     -4.550809      .466785 
 55            20           -2.099475     -4.534336     -.138157 
 60            20           -3.301687     -4.797466     -.975196 
 65            20           -4.805074     -5.419075     -2.090933
 70            20           -6.635054     -6.519697     -3.566693
 75            20           -8.854629     -8.313833     -5.565518
 80            20           -11.71421     -11.27066     -8.476473
 85            20           -16.41579     -16.87101     -13.62714
 90            20           -999          -999          -999     
 0             25           -.466804      -7.093353      .387682 
 5             25           -.435165      -6.999454      .430506 
 10            25           -.347804      -6.726017      .552091 
 15            25           -.225338      -6.296397      .733717 
 20            25           -.098882      -5.74724       .947263 
 25            25           -.006206      -5.124633      1.158945
 30            25            .012015      -4.479294      1.333088
 35            25           -.084883      -3.862359      1.435054
 40            25           -.335787      -3.323011      1.432831
 45            25           -.776952      -2.908268      1.297142
 50            25           -1.441681     -2.664748      .999999 
 55            25           -2.360014     -2.642264      .511454 
 60            25           -3.558216     -2.899872     -.206281 
 65            25           -5.058992     -3.51658      -1.209369
 70            25           -6.887847     -4.613031     -2.592869
 75            25           -9.107568     -6.403822     -4.538302
 80            25           -11.96798     -9.358203     -7.459638
 85            25           -16.67035     -14.95707     -12.71947
 90            25           -999          -999          -999     
 0             30           -.861706      -5.632918      .387682 
 5             30           -.829218      -5.538172      .435818 
 10            30           -.739347      -5.262237      .573465 
 15            30           -.612848      -4.828623      .782199 
 20            30           -.481043      -4.274211      1.034267
 25            30           -.381961      -3.645363      1.296212
 30            30           -.356569      -2.993077      1.532549
 35            30           -.44585       -2.368756      1.708563
 40            30           -.689018      -1.821823      1.79171 
 45            30           -1.122677     -1.399516      1.751409
 50            30           -1.78049      -1.148651      1.55721 
 55            30           -2.692869     -1.119223      1.175143
 60            30           -3.88644      -1.370456      .561557 
 65            30           -5.384193     -1.981504     -.347489 
 70            30           -7.211738     -3.073141     -1.656753
 75            30           -9.431609     -4.860072     -3.559898
 80            30           -12.29296     -7.811633     -6.48794 
 85            30           -16.99623     -13.40878     -11.83186
 90            30           -999          -999          -999     
 0             35           -1.345028     -4.440492      .387682 
 5             35           -1.311601     -4.34481       .441688 
 10            35           -1.218955     -4.06611       .597023 
 15            35           -1.087996     -3.628081      .835378 
 20            35           -.950276      -3.06786       1.129038
 25            35           -.844116      -2.432115      1.444365
 30            35           -.810807      -1.772156      1.745365
 35            35           -.891679      -1.139679      1.996391
 40            35           -1.126312     -.584375       2.163404
 45            35           -1.551692     -.153722       2.213601
 50            35           -2.201882      .105244       2.113416
 55            35           -3.107698      .142327       1.824793
 60            35           -4.296161     -.101877       1.299085
 65            35           -5.790578     -.706687       .466616 
 70            35           -7.616669     -1.793019     -.783808 
 75            35           -9.836689     -3.575697     -2.653622
 80            35           -12.69905     -6.524151     -5.585475
 85            35           -17.40328     -12.11941     -10.99263
 90            35           -999          -298.1196     -298.0541
 0             40           -1.927239     -3.450968      .387682 
 5             40           -1.892812     -3.354288      .447938 
 10            40           -1.797209     -3.072644      .622027 
 15            40           -1.661498     -2.629911      .891532 
 20            40           -1.517482     -2.063505      1.228382
 25            40           -1.403789     -1.420419      1.598204
 30            40           -1.362058     -.752297       1.963815
 35            40           -1.433992     -.111148       2.287903
 40            40           -1.659558      .453055       2.534261
 45            40           -2.076148      .892575       2.667391
 50            40           -2.718245      1.160146      2.650527
 55            40           -3.617097      1.205359      2.441992
 60            40           -4.80014       .968616       1.989267
 65            40           -6.291016      .370427       1.218701
 70            40           -8.115558     -.710275       .014976 
 75            40           -10.33573     -2.48844      -1.828308
 80            40           -13.19914     -5.433598     -4.761846
 85            40           -17.90438     -11.02685     -10.21614
 90            40           -999          -999          -999     
 0             45           -2.622618     -2.622618      .387682 
 5             45           -2.58716      -2.524909      .454377 
 10            45           -2.488508     -2.24023       .647705 
 15            45           -2.3479       -1.792649      .948893 
 20            45           -2.197396     -1.21987       1.329112
 25            45           -2.075946     -.569224       1.752731
 30            45           -2.025549      .107301       2.180813
 35            45           -2.088291      .757373       2.573861
 40            45           -2.304539      1.330727      2.893145
 45            45           -2.712101      1.779364      3.100396
 50            45           -3.345891      2.055778      3.155922
 55            45           -4.2376        2.109343      3.015107
 60            45           -5.415086      1.880264      2.622605
 65            45           -6.902334      1.288873      1.902127
 70            45           -8.725295      .213952       .735757 
 75            45           -10.94562     -1.55958      -1.086111
 80            45           -13.81012     -4.501355     -4.01984 
 85            45           -18.51638     -10.09255     -9.509223
 90            45           -999          -999          -999     
 0             50           -3.450968     -1.927239      .387682 
 5             50           -3.414479     -1.828502      .460807 
 10            50           -3.312779     -1.54079       .673271 
 15            50           -3.167276     -1.088363      1.005704
 20            50           -3.010292     -.509218       1.428155
 25            50           -2.881099      .148976       1.903307
 30            50           -2.822057      .833888       2.390068
 35            50           -2.875635      1.492863      2.846483
 40            50           -3.082602      2.075342      3.231227
 45            50           -3.481178      2.533066      3.503438
 50            50           -4.106708      2.818291      3.620954
 55            50           -4.991319      2.880175      3.536902
 60            50           -6.163295      2.658728      3.193964
 65            50           -7.646958      2.074107      2.514145
 70            50           -9.468376      1.00494       1.377907
 75            50           -11.68889     -.76398       -.426454 
 80            50           -14.5545      -3.702387     -3.359375
 85            50           -19.26179     -9.291528     -8.874889
 90            50           -999          -999          -999     
 0             55           -4.440492     -1.345028      .387682 
 5             55           -4.403003     -1.245296      .467035 
 10            55           -4.298349     -.954643       .697953 
 15            55           -4.148103     -.497522       1.060274
 20            55           -3.984843      .087789       1.522636
 25            55           -3.848156      .753292       2.045747
 30            55           -3.780753      1.44632       2.58615 
 35            55           -3.825477      2.113906      3.099371
 40            55           -4.023484      2.705208      3.541626
 45            55           -4.413396      3.171715      3.86979 
 50            55           -5.030972      3.465453      4.039718
 55            55           -5.908763      3.535373      4.002878
 60            55           -7.075462      3.321296      3.700615
 65            55           -8.55572       2.743211      3.053858
 70            55           -10.37572      1.679599      1.942059
 75            55           -12.5965      -.084869       .152114 
 80            55           -15.46325     -3.020027     -2.779383
 85            55           -20.17159     -8.607189     -8.314356
 90            55           -999          -999          -999     
 0             60           -5.632918     -.861706       .387682 
 5             60           -5.594491     -.761041       .47287  
 10            60           -5.487065     -.467632       .721018 
 15            60           -5.332372     -.006109       1.111023
 20            60           -5.163231      .584982       1.609943
 25            60           -5.019526      1.257332      2.176376
 30            60           -4.944301      1.957961      2.76447 
 35            60           -4.980752      2.633607      3.327351
 40            60           -5.170398      3.233166      3.819041
 45            60           -5.552238      3.707888      4.194533
 50            60           -6.162421      4.009587      4.408155
 55            60           -7.033898      4.08702       4.410192
 60            60           -8.195745      3.879832      4.141106
 65            60           -9.672928      3.307854      3.521157
 70            60           -11.49174      2.249431      2.429173
 75            60           -13.71293      .489121       .651099 
 80            60           -16.58091     -2.443        -2.278657
 85            60           -21.29035     -8.028314     -7.828084
 90            60           -999          -297.2355     -297.2178
 0             65           -7.093353     -.466804       .387682 
 5             65           -7.054077     -.365299       .478138 
 10            65           -6.944145     -.069399       .741785 
 15            65           -6.785436      .396098       1.15652 
 20            65           -6.610986      .992407       1.687772
 25            65           -6.460954      1.670938      2.292049
 30            65           -6.378687      2.378424      2.921237
 35            65           -6.4077        3.061339      3.526309
 40            65           -6.589846      3.668342      4.059421
 45            65           -6.964466      4.150468      4.474069
 50            65           -7.568066      4.45934       4.723442
 55            65           -8.433961      4.54354       4.757   
 60            65           -9.591585      4.342555      4.514638
 65            65           -11.06619      3.776076      3.916207
 70            65           -12.88418      2.722327      2.840149
 75            65           -15.10604      .96576        1.071757
 80            65           -17.97544     -1.963629     -1.856176
 85            65           -22.68612     -7.54728      -7.416261
 90            65           -999          -999          -999     
 0             70           -8.931285     -.152602       .387682 
 5             70           -8.891274     -.050372       .482679 
 10            70           -8.779178      .247673       .759648 
 15            70           -8.617002      .716598       1.195513
 20            70           -8.437978      1.317407      1.754149
 25            70           -8.282503      2.001264      2.390147
 30            70           -8.194192      2.71466       3.05339 
 35            70           -8.216841      3.403838      3.693024
 40            70           -8.392595      4.017251      4.2597  
 45            70           -8.761098      4.505752      4.705766
 50            70           -9.359173      4.820798      4.983586
 55            70           -10.22046      4.910821      5.042065
 60            70           -11.37472      4.715174      4.820736
 65            70           -12.84749      4.153427      4.239209
 70            70           -14.66525      3.103696      3.175688
 75            70           -16.88827      1.350349      1.415016
 80            70           -19.75949     -1.576689     -1.511192
 85            70           -24.4717      -7.158909     -7.079017
 90            70           -999          -999          -999     
 0             75           -11.35239      .086557       .387682 
 5             75           -11.31178      .189371       .486357 
 10            75           -11.19792      .489155       .774094 
 15            75           -11.03294      .960856       1.226949
 20            75           -10.85021      1.56531       1.807451
 25            75           -10.69035      2.253483      2.468564
 30            75           -10.5972       2.971664      3.158527
 35            75           -10.61478      3.665912      3.825036
 40            75           -10.78549      4.284514      4.417594
 45            75           -11.14925      4.778173      4.887708
 50            75           -11.74314      5.098215      5.187175
 55            75           -12.60111      5.19295       5.26453 
 60            75           -13.75321      5.00162       5.059087
 65            75           -15.22524      4.443698      4.490317
 70            75           -17.04383      3.397218      3.436278
 75            75           -19.26899      1.646475      1.681508
 80            75           -22.14294     -1.278663     -1.243216
 85            75           -26.85736     -6.859726     -6.816489
 90            75           -999          -999          -999     
 0             80           -14.81891      .254711       .387682 
 5             80           -14.77784      .357952       .489061 
 10            80           -14.66267      .659012       .784707 
 15            80           -14.4956       1.132756      1.249995
 20            80           -14.31017      1.73989       1.846413
 25            80           -14.14714      2.431237      2.52569 
 30            80           -14.05054      3.152938      3.234847
 35            80           -14.06461      3.850914      3.920536
 40            80           -14.23195      4.473331      4.531454
 45            80           -14.59271      4.970783      5.018541
 50            80           -15.18424      5.294497      5.33322 
 55            80           -16.04077      5.392694      5.423803
 60            80           -17.19269      5.204538      5.229473
 65            80           -18.66609      4.649429      4.669623
 70            80           -20.48778      3.605337      3.622227
 75            80           -22.71753      1.856507      1.871629
 80            80           -25.59663     -1.067234     -1.051956
 85            80           -30.31517     -6.647448     -6.628824
 90            80           -999          -999          -999     
 0             85           -20.8064       .354566       .387682 
 5             85           -20.76495      .458063       .49071  
 10            85           -20.64891      .759901       .791186 
 15            85           -20.48054      1.234889      1.264049
 20            85           -20.29351      1.84366       1.870129
 25            85           -20.12876      2.536944      2.560389
 30            85           -20.03052      3.260795      3.281101
 35            85           -20.04324      3.961048      3.978287
 40            85           -20.20979      4.585795      4.600167
 45            85           -20.5706       5.085564      5.097356
 50            85           -21.16339      5.411521      5.421067
 55            85           -22.02287      5.511834      5.519489
 60            85           -23.18         5.325616      5.331738
 65            85           -24.6615       4.772224      4.777169
 70            85           -26.49461      3.729592      3.733714
 75            85           -28.73875      1.98193       1.985607
 80            85           -31.63309     -.940958      -.937256 
 85            85           -36.36369     -6.520652     -6.516152
 90            85           -999          -999          -999     
 0             90           -999           .387682       .387682 
 5             90           -83.92601      .491256       .491256 
 10            90           -78.10657      .793346       .793346 
 15            90           -74.93634      1.268745      1.268745
 20            90           -72.96404      1.878057      1.878058
 25            90           -71.76064      2.571986      2.571986
 30            90           -71.15944      3.296552      3.296553
 35            90           -71.08308      3.997566      3.997566
 40            90           -71.44798      4.62309       4.62309 
 45            90           -72.01534      5.123633      5.123633
 50            90           -72.18389      5.45034       5.45034 
 55            90           -71.29608      5.55136       5.55136 
 60            90           -69.60785      5.36579       5.36579 
 65            90           -67.91851      4.812973      4.812973
 70            90           -66.73763      3.770829      3.770829
 75            90           -66.35592      2.023558      2.023558
 80            90           -67.18727     -.899045      -.899044 
 85            90           -70.58992     -6.478566     -6.478564
 90            90           -999          -296.802      -296.7744
 0             95           -20.8064       .354566       .387682 
 5             95           -20.76542      .458036       .49068  
 10            95           -20.64977      .759847       .791126 
 15            95           -20.48158      1.234808      1.263962
 20            95           -20.29428      1.843553      1.870018
 25            95           -20.12846      2.536813      2.56026 
 30            95           -20.02792      3.26064       3.280959
 35            95           -20.03662      3.960872      3.978137
 40            95           -20.19683      4.585599      4.600014
 45            95           -20.5482       5.08535       5.097203
 50            95           -21.1274       5.411291      5.420917
 55            95           -21.9677       5.51159       5.519343
 60            95           -23.09815      5.325359      5.331599
 65            95           -24.54334      4.771958      4.777039
 70            95           -26.32894      3.729317      3.7336  
 75            95           -28.5157       1.981649      1.98552 
 80            95           -31.35044     -.941244      -.937293 
 85            95           -36.03421     -6.520941     -6.516086
 90            95           -999          -295.9322     -295.9136
 0             100          -14.81891      .254711       .387682 
 5             100          -14.77811      .357898       .489001 
 10            100          -14.66318      .658905       .784588 
 15            100          -14.49624      1.132595      1.249822
 20            100          -14.31071      1.739678      1.846193
 25            100          -14.14718      2.430975      2.525433
 30            100          -14.04946      3.152629      3.234565
 35            100          -14.06154      3.850562      3.920239
 40            100          -14.22572      4.472939      4.53115 
 45            100          -14.58175      4.970356      5.018238
 50            100          -15.16646      5.294038      5.332924
 55            100          -16.01335      5.392207      5.423516
 60            100          -17.15184      5.204027      5.2292  
 65            100          -18.60697      4.648897      4.669369
 70            100          -20.40473      3.604789      3.622006
 75            100          -22.60559      1.855945      1.871464
 80            100          -25.45468     -1.067805     -1.052018
 85            100          -30.14964     -6.648024     -6.628675
 90            100          -999          -294.2534     -293.9878
 0             105          -11.35239      .086557       .387682 
 5             105          -11.31201      .189291       .486267 
 10            105          -11.19835      .488995       .773917 
 15            105          -11.0335       .960617       1.226691
 20            105          -10.85075      1.564994      1.807123
 25            105          -10.69059      2.253093      2.468181
 30            105          -10.59671      2.971204      3.158106
 35            105          -10.61299      3.665387      3.824594
 40            105          -10.7816       4.28393       4.417145
 45            105          -11.1422       4.777536      4.887263
 50            105          -11.73151      5.09753       5.186739
 55            105          -12.583        5.192222      5.264112
 60            105          -13.72606      5.000856      5.058692
 65            105          -15.18577      4.442905      4.489955
 70            105          -16.98822      3.3964        3.435967
 75            105          -19.1939       1.645636      1.681285
 80            105          -22.0476      -1.279515     -1.243277
 85            105          -26.74612     -6.860587     -6.816225
 90            105          -999          -999          -999     
 0             110          -8.931285     -.152602       .387682 
 5             110          -8.891491     -.050478       .48256  
 10            110          -8.779593      .247462       .759414 
 15            110          -8.617559      .716282       1.195172
 20            110          -8.438557      1.316988      1.753716
 25            110          -8.282894      2.000748      2.389642
 30            110          -8.194074      2.714052      3.052835
 35            110          -8.215766      3.403144      3.692444
 40            110          -8.389954      4.016478      4.259113
 45            110          -8.756081      4.504908      4.705186
 50            110          -9.350693      4.819891      4.983025
 55            110          -10.20706      4.909859      5.04153 
 60            110          -11.35444      4.714163      4.820237
 65            110          -12.81782      4.152375      4.23876 
 70            110          -14.62329      3.102611      3.175315
 75            110          -16.83145      1.349238      1.414767
 80            110          -19.68724     -1.577818     -1.511213
 85            110          -24.38732     -7.16005      -7.078583
 90            110          -999          -296.63       -296.3797
 0             115          -7.093353     -.466804       .387682 
 5             115          -7.054298     -.365429       .477991 
 10            115          -6.944571     -.06966        .741495 
 15            115          -6.78602       .395707       1.156099
 20            115          -6.611629      .99189        1.687237
 25            115          -6.461484      1.670299      2.291425
 30            115          -6.378841      2.377671      2.920554
 35            115          -6.40711       3.06048       3.525597
 40            115          -6.588012      3.667385      4.058705
 45            115          -6.960722      4.149423      4.473369
 50            115          -7.56152       4.458217      4.722772
 55            115          -8.423414      4.542348      4.756372
 60            115          -9.575436      4.341303      4.514063
 65            115          -11.04239      3.774773      3.915703
 70            115          -12.85034      2.720982      2.83975 
 75            115          -15.06007      .964383       1.071528
 80            115          -17.91686     -1.965028     -1.8561  
 85            115          -22.61763     -7.548693     -7.415581
 90            115          -999          -294.0642     -293.9015
 0             120          -5.632918     -.861706       .387682 
 5             120          -5.594722     -.761196       .472697 
 10            120          -5.487512     -.467941       .720676 
 15            120          -5.332996     -.006571       1.110524
 20            120          -5.163946      .58437        1.60931 
 25            120          -5.020183      1.256577      2.175639
 30            120          -4.944676      1.95707       2.763665
 35            120          -4.980528      2.632589      3.326517
 40            120          -5.169145      3.232032      3.818209
 45            120          -5.549384      3.706649      4.193728
 50            120          -6.157199      4.008255      4.407398
 55            120          -7.025278      4.085605      4.409498
 60            120          -8.182354      3.878345      4.14049 
 65            120          -9.653002      3.306307      3.520641
 70            120          -11.46324      2.247835      2.428801
 75            120          -13.67407      .487486       .650953 
 80            120          -16.53129     -2.444663     -2.278405
 85            120          -21.23226     -8.029994     -7.827052
 90            120          -999          -290.6623     -290.652 
 0             125          -4.440492     -1.345028      .387682 
 5             125          -4.403247     -1.245473      .466836 
 10            125          -4.298823     -.954998       .697561 
 15            125          -4.148773     -.498052       1.059702
 20            125          -3.985632      .087087       1.521909
 25            125          -3.848932      .752425       2.044903
 30            125          -3.781316      1.445296      2.585232
 35            125          -3.825547      2.112736      3.098425
 40            125          -4.022679      2.703905      3.540692
 45            125          -4.411208      3.17029       3.868902
 50            125          -5.02672       3.46392       4.038902
 55            125          -5.901534      3.533745      4.002154
 60            125          -7.064038      3.319585      3.700004
 65            125          -8.53854       2.74143       3.053388
 70            125          -10.35098      1.67776       1.941783
 75            125          -12.56263     -.086753       .152136 
 80            125          -15.41989     -3.021943     -2.778846
 85            125          -20.12076     -8.609124     -8.312831
 90            125          -999          -293.0379     -292.9664
 0             130          -3.450968     -1.927239      .387682 
 5             130          -3.414737     -1.828701      .460584 
 10            130          -3.313283     -1.541187      .672831 
 15            130          -3.167994     -1.088957      1.005063
 20            130          -3.011153     -.510005       1.427341
 25            130          -2.881985      .148003       1.902363
 30            130          -2.822785      .832739       2.389046
 35            130          -2.875951      1.49155       2.845437
 40            130          -3.082158      2.073879      3.230209
 45            130          -3.479513      2.531466      3.502492
 50            130          -4.103201      2.816568      3.620114
 55            130          -4.985141      2.878344      3.536196
 60            130          -6.153339      2.656803      3.193419
 65            130          -7.631808      2.072103      2.513797
 70            130          -9.446402      1.00287       1.377821
 75            130          -11.65867     -.7661        -.426147 
 80            130          -14.51569     -3.704544     -3.358407
 85            130          -19.21623     -9.293707     -8.872679
 90            130          -999          -999          -999     
 0             135          -2.622618     -2.622618      .387682 
 5             135          -2.587433     -2.525128      .454131 
 10            135          -2.489042     -2.240668      .647221 
 15            135          -2.348664     -1.793303      .948188 
 20            135          -2.198327     -1.220737      1.328217
 25            135          -2.076933     -.570296       1.751695
 30            135          -2.026423      .106035       2.179696
 35            135          -2.088816      .755926       2.572729
 40            135          -2.304394      1.329114      2.892063
 45            135          -2.710857      1.777599      3.09942 
 50            135          -3.342974      2.053877      3.1551  
 55            135          -4.232239      2.107321      3.014476
 60            135          -5.406258      1.878138      2.622202
 65            135          -6.888731      1.286659      1.901999
 70            135          -8.705411      .211665       .735985 
 75            135          -10.91814     -1.561923     -1.085364
 80            135          -13.77474     -4.503739     -4.018245
 85            135          -18.47478     -10.09495     -9.506076
 90            135          -999          -999          -999     
 0             140          -1.927239     -3.450968      .387682 
 5             140          -1.893099     -3.354525      .447673 
 10            140          -1.797771     -3.073118      .621503 
 15            140          -1.662307     -2.63062       .890768 
 20            140          -1.518477     -2.064444      1.227413
 25            140          -1.404867     -1.421581      1.597084
 30            140          -1.363061     -.75367        1.962614
 35            140          -1.434697     -.112718       2.2867  
 40            140          -1.659663      .451303       2.533136
 45            140          -2.07525       .890658       2.666418
 50            140          -2.715802      1.15808       2.649771
 55            140          -3.612386      1.203161      2.441507
 60            140          -4.792198      .966304       1.989105
 65            140          -6.278614      .368018       1.218923
 70            140          -8.097286     -.712764       .015687 
 75            140          -10.31035     -2.490991     -1.82691 
 80            140          -13.16638     -5.436194     -4.759357
 85            140          -17.8658      -11.02947     -10.21172
 90            140          -999          -999          -999     
 0             145          -1.345028     -4.440492      .387682 
 5             145          -1.311901     -4.345063      .441404 
 10            145          -1.219545     -4.066617      .596462 
 15            145          -1.088847     -3.628839      .83456  
 20            145          -.951331      -3.068865      1.128002
 25            145          -.845277      -2.433359      1.44317 
 30            145          -.811923      -1.773626      1.744091
 35            145          -.892539      -1.141362      1.995132
 40            145          -1.126628     -.586253       2.162259
 45            145          -1.55108      -.155778       2.212667
 50            145          -2.199825      .103028       2.112783
 55            145          -3.103507      .13997        1.824539
 60            145          -4.28892      -.104358       1.299287
 65            145          -5.77912      -.709273       .467358 
 70            145          -7.599654     -1.795692     -.782391 
 75            145          -9.81295      -3.578437     -2.651285
 80            145          -12.66832     -6.52694      -5.581728
 85            145          -17.36704     -12.12223     -10.98649
 90            145          -999          -999          -999     
 0             150          -.861706      -5.632918      .387682 
 5             150          -.82953       -5.53844       .435517 
 10            150          -.739961      -5.262772      .572871 
 15            150          -.613737      -4.829425      .781334 
 20            150          -.482151      -4.275275      1.033172
 25            150          -.383194      -3.646679      1.294953
 30            150          -.357783      -2.994634      1.531214
 35            150          -.446842      -2.370538      1.707263
 40            150          -.68951       -1.823812      1.790566
 45            150          -1.1223       -1.401695      1.750549
 50            150          -1.778748     -1.151         1.556758
 55            150          -2.689097     -1.121724      1.175217
 60            150          -3.879757     -1.373088      .562272 
 65            150          -5.373479     -1.984249     -.346009 
 70            150          -7.195708     -3.075978     -1.654332
 75            150          -9.409144     -4.862981     -3.556229
 80            150          -12.2638      -7.814595     -6.48244 
 85            150          -16.9618      -13.41178     -11.82343
 90            150          -999          -999          -999     
 0             155          -.466804      -7.093353      .387682 
 5             155          -.435487      -6.999735      .430192 
 10            155          -.348438      -6.726578      .55147  
 15            155          -.226259      -6.297236      .732812 
 20            155          -.100036      -5.748353      .946117 
 25            155          -.007502      -5.126012      1.15763 
 30            155           .010718      -4.480925      1.331703
 35            155          -.085985      -3.864227      1.433726
 40            155          -.336426      -3.325097      1.431708
 45            155          -.776768      -2.910554      1.296389
 50            155          -1.440193     -2.667213      .999788 
 55            155          -2.356576     -2.644889      .51196  
 60            155          -3.551975     -2.902636     -.204881 
 65            155          -5.048861     -3.519463     -1.206883
 70            155          -6.872584     -4.616012     -2.589054
 75            155          -9.086091     -6.406879     -4.532776
 80            155          -11.94004     -9.361315     -7.451729
 85            155          -16.63733     -14.96021     -12.70801
 90            155          -999          -999          -999     
 0             160          -.152602      -8.931285      .387682 
 5             160          -.122027      -8.838408      .425591 
 10            160          -.037153      -8.567419      .532935 
 15            160           .081532      -8.141536      .690604 
 20            160           .203123      -7.597203      .869908 
 25            160           .290108      -6.980265      1.036383
 30            160           .302113      -6.341193      1.15361 
 35            160           .198798      -5.730893      1.186233
 40            160          -.058363      -5.198334      1.101728
 45            160          -.50524       -4.790346      .870869 
 50            160          -1.174699     -4.553371      .466861 
 55            160          -2.096298     -4.537065     -.137125 
 60            160          -3.295786     -4.80034      -.972932 
 65            160          -4.795391     -5.422074     -2.087138
 70            160          -6.620376     -6.522798     -3.561013
 75            160          -8.833905     -8.317013     -5.557473
 80            160          -11.6872      -11.27389     -8.465332
 85            160          -16.38383     -16.87428     -13.61184
 90            160          -999          -299.611      -299.5968
 0             165           .086557      -11.35239      .387682 
 5             165           .116531      -11.26012      .421857 
 10            165           .19964       -10.99089      .517857 
 15            165           .315492      -10.56781      .656143 
 20            165           .433322      -10.02717      .807346 
 25            165           .515801      -9.41462       .9361   
 30            165           .522759      -8.780434      1.004859
 35            165           .414073      -8.175331      .976929 
 40            165           .151449      -7.648112      .818344 
 45            165          -.300737      -7.245451      .498606 
 50            165          -.975099      -7.013652     -.009583 
 55            165          -1.900934     -7.00224      -.731748 
 60            165          -3.103739     -7.270011     -1.695035
 65            165          -4.60554      -7.895737     -2.935937
 70            165          -6.431533     -8.999858     -4.518243
 75            165          -8.645053     -10.7968      -6.578704
 80            165          -11.49778     -13.75567     -9.471315
 85            165          -16.19385     -19.35727     -14.48338
 90            165          -999          -999          -999     
 0             170           .254711      -14.81891      .387682 
 5             170           .284242      -14.72708      .419104 
 10            170           .36605       -14.45915      .506724 
 15            170           .479813      -14.03814      .630622 
 20            170           .594872      -13.50022      .760812 
 25            170           .674029      -12.8909       .861057 
 30            170           .677264      -12.26032      .892648 
 35            170           .564617      -11.65905      .817382 
 40            170           .297963      -11.13577      .599437 
 45            170          -.158141      -10.73704      .206233 
 50            170          -.836122      -10.50906     -.391423 
 55            170          -1.76508      -10.50127     -1.219804
 60            170          -2.97033      -10.77236     -2.303787
 65            170          -4.473745     -11.40103     -3.671468
 70            170          -6.300471     -12.50766     -5.368053
 75            170          -8.513969     -14.30661     -7.49831 
 80            170          -11.36627     -17.26695     -10.37292
 85            170          -16.06191     -22.86945     -15.2392 
 90            170          -999          -999          -999     
 0             175           .354566      -20.8064       .387682 
 5             175           .383826      -20.71484      .417418 
 10            175           .464838      -20.4477       .499895 
 15            175           .577321      -20.02796      .614938 
 20            175           .690683      -19.4917       .732128 
 25            175           .767804      -18.88437      .814602 
 30            175           .768758      -18.25599      .822784 
 35            175           .653682      -17.65707      .717292 
 40            175           .384559      -17.13621      .460748 
 45            175          -.073947      -16.73989      .018639 
 50            175          -.754146      -16.51426     -.640364 
 55            175          -1.68502      -16.50867     -1.544297
 60            175          -2.891766     -16.7818      -2.717961
 65            175          -4.396169     -17.41228     -4.184552
 70            175          -6.223339     -18.52045     -5.974693
 75            175          -8.436818     -20.32063     -8.164111
 80            175          -11.28884     -23.28188     -11.02271
 85            175          -15.98422     -28.88492     -15.76704
 90            175          -999          -999          -999     
 0             180           .387682      -999           .387682 
 5             180           .41685       -999           .41685  
 10            180           .497594      -999           .497594 
 15            180           .609646      -999           .609646 
 20            180           .722436      -999           .722436 
 25            180           .798872      -999           .798872 
 30            180           .799057      -999           .799057 
 35            180           .683164      -999           .683164 
 40            180           .413208      -999           .413208 
 45            180          -.046108      -999          -.046108 
 50            180          -.727054      -999          -.727054 
 55            180          -1.658572     -999          -1.658572
 60            180          -2.865823     -999          -2.865823
 65            180          -4.370557     -999          -4.370557
 70            180          -6.197877     -999          -6.197877
 75            180          -8.411349     -999          -8.411349
 80            180          -11.26328     -999          -11.26328
 85            180          -15.95856     -999          -15.95856
 90            180          -999          -999          -999     
 0             185           .354566      -20.8064       .387682 
 5             185           .383826      -20.71484      .417418 
 10            185           .464838      -20.4477       .499895 
 15            185           .577321      -20.02796      .614938 
 20            185           .690683      -19.4917       .732128 
 25            185           .767804      -18.88437      .814602 
 30            185           .768758      -18.25599      .822784 
 35            185           .653682      -17.65707      .717292 
 40            185           .384559      -17.13621      .460748 
 45            185          -.073947      -16.73989      .018639 
 50            185          -.754146      -16.51426     -.640364 
 55            185          -1.68502      -16.50867     -1.544297
 60            185          -2.891766     -16.7818      -2.717961
 65            185          -4.396169     -17.41228     -4.184552
 70            185          -6.223339     -18.52045     -5.974693
 75            185          -8.436818     -20.32063     -8.164111
 80            185          -11.28884     -23.28188     -11.02271
 85            185          -15.98422     -28.88492     -15.76704
 90            185          -999          -999          -999     
 0             190           .254711      -14.81891      .387682 
 5             190           .284242      -14.72708      .419104 
 10            190           .36605       -14.45915      .506724 
 15            190           .479813      -14.03814      .630622 
 20            190           .594872      -13.50022      .760812 
 25            190           .674029      -12.8909       .861057 
[...]
 5             285          -14.05893     -2.558509     -2.261475
 10            285          -13.79228     -2.097989     -1.813508
 15            285          -13.38935     -1.362829     -1.098674
 20            285          -12.90484     -.410855      -.172933 
 25            285          -12.4048       .676813       .885337 
 30            285          -11.95748      1.811254      1.989882
 35            285          -11.62633      2.91013       3.060308
 40            285          -11.46687      3.903818      4.028123
 45            285          -11.52641      4.734218      4.835758
 50            285          -11.84539      5.349848      5.431912
 55            285          -12.45866      5.699452      5.76532 
 60            285          -13.3963       5.724097      5.776954
 65            285          -14.68465      5.345439      5.388356
 70            285          -16.35276      4.44354       4.479544
 75            285          -18.46548      2.804371      2.836669
 80            285          -21.26967     -.040934      -.008329 
 85            285          -25.95533     -5.573046     -5.533456
 90            285          -999          -299.1357     -299.1081
 0             290          -11.73262     -2.953938     -2.413654
 5             290          -11.63926     -2.798475     -2.26541 
 10            290          -11.37561     -2.340366     -1.829323
 15            290          -10.97702     -1.609033     -1.133696
 20            290          -10.49791     -.662002      -.232899 
 25            290          -10.00402      .41995        .797    
 30            290          -9.563292      1.548206      1.872055
 35            290          -9.238896      2.640666      2.913632
 40            290          -9.086037      3.627889      3.854363
 45            290          -9.151758      4.451924      4.637325
 50            290          -9.476188      5.061429      5.211569
 55            290          -10.09386      5.405278      5.526009
 60            290          -11.03454      5.424661      5.521712
 65            290          -12.32431      5.041344      5.120278
 70            290          -13.99218      4.13549       4.201818
 75            290          -16.10331      2.493155      2.552743
 80            290          -18.90536     -.35446       -.294248 
 85            290          -23.58929     -5.887977     -5.814864
 90            290          -999          -295.7385     -295.7321
 0             295          -9.894689     -3.26814      -2.413654
 5             295          -9.802711     -3.113678     -2.270287
 10            295          -9.542389     -2.658548     -1.848912
 15            295          -9.14885      -1.931941     -1.177181
 20            295          -8.676187     -.991015      -.307652 
 25            295          -8.189758      .083877       .686365 
 30            295          -7.75712       1.204492      1.723771
 35            295          -7.441078      2.289021      2.728189
 40            295          -7.296474      3.268249      3.633766
 45            295          -7.369986      4.084414      4.384505
 50            295          -7.701362      4.686343      4.929998
 55            295          -8.324743      5.023072      5.219474
 60            295          -9.2695        5.035942      5.194178
 65            295          -10.56141      4.64686       4.775831
 70            295          -12.22938      3.736113      3.844704
 75            295          -14.33888      2.089859      2.187586
 80            295          -17.13847     -.760616      -.66175  
 85            295          -21.82033     -6.295873     -6.175834
 90            295          -999          -296.0207     -295.6838
 0             300          -8.434254     -3.663041     -2.413654
 5             300          -8.34369      -3.509745     -2.275956
 10            300          -8.087057     -3.058071     -1.871707
 15            300          -7.699232     -2.336946     -1.227958
 20            300          -7.233942     -1.403102     -.395381 
 25            300          -6.756111     -.336405       .555754 
 30            300          -6.332848      .775335       1.547624
 35            300          -6.026523      1.850651      2.506581
 40            300          -5.891553      2.820588      3.368708
 45            300          -5.974191      3.627602      4.079277
 50            300          -6.313741      4.220722      4.588689
 55            300          -6.94388       4.549169      4.84669 
 60            300          -7.893528      4.554462      4.794849
 65            300          -9.188084      4.158672      4.355121
 70            300          -10.85631      3.242229      3.40804 
 75            300          -12.96403      1.591414      1.740949
 80            300          -15.76082     -1.26239      -1.110913
 85            300          -20.44025     -6.799673     -6.615807
 90            300          -999          -999          -999     
 0             305          -7.241828     -4.146364     -2.413654
 5             305          -7.152731     -3.994359     -2.282245
 10            305          -6.900091     -3.546513     -1.897039
 15            305          -6.518521     -2.831461     -1.284628
 20            305          -6.061347     -1.905465     -.493881 
 25            305          -5.593014     -.847855       .40806  
 30            305          -5.180137      .254041       1.346932
 35            305          -4.884603      1.319132      2.252217
 40            305          -4.760354      2.278752      3.062369
 45            305          -4.853166      3.075603      3.724338
 50            305          -5.201845      3.658934      4.189694
 55            305          -5.839554      3.978176      4.408992
 60            305          -6.794699      3.975047      4.324369
 65            305          -8.092255      3.571798      3.858202
 70            305          -9.760816      2.64902       2.89147 
 75            305          -11.86658      .993133       1.212316
 80            305          -14.66023     -1.864374     -1.642026
 85            305          -19.33693     -7.403911     -7.134183
 90            305          -999          -297.3053     -297.0919
 0             310          -6.252304     -4.728575     -2.413654
 5             310          -6.164715     -4.577951     -2.288963
 10            310          -5.916282     -4.134188     -1.924161
 15            310          -5.541342     -3.425615     -1.345595
 20            310          -5.092797     -2.507997     -.60057  
 25            310          -4.634592     -1.460092      .246774 
 30            310          -4.232809     -.368715       1.125823
 35            310          -3.948818      .68544        1.969473
 40            310          -3.836054      1.634024      2.718953
 45            310          -3.939776      2.419997      3.323349
 50            310          -4.298256      2.992847      3.735856
 55            310          -4.944098      3.30223       3.908265
 60            310          -5.905155      3.290078      3.783648
 65            310          -7.20594       2.878836      3.285124
 70            310          -8.874859      1.94927       2.294414
 75            310          -10.97851      .287945       .600841 
 80            310          -13.76874     -2.573531     -2.255645
 85            310          -18.44244     -8.115484     -7.730284
 90            310          -999          -999          -999     
 0             315          -5.423954     -5.423954     -2.413654
 5             315          -5.337886     -5.274755     -2.295906
 10            315          -5.093763     -4.835208     -1.952262
 15            315          -4.725641     -4.133324     -1.409092
 20            315          -4.285992     -3.224359     -.712516 
 25            315          -3.838242     -2.186485      .075994 
 30            315          -3.44793      -1.10599       .889326 
 35            315          -3.17589      -.063149       1.663884
 40            315          -3.075027      .874006       2.343984
 45            315          -3.190066      1.64871       2.881305
 50            315          -3.558717      2.210698      3.231211
 55            315          -4.212999      2.509862      3.347302
 60            315          -5.180187      2.488352      3.17414 
 65            315          -6.484306      2.06882       2.636102
 70            315          -8.153566      1.132211      1.616144
 75            315          -10.25496     -.534756      -.094634 
 80            315          -13.04157     -3.400351     -2.952555
 85            315          -17.71209     -8.944811     -8.403191
 90            315          -999          -999          -999     
 0             320          -4.728575     -6.252304     -2.413654
 5             320          -4.644008     -6.104533     -2.302861
 10            320          -4.404178     -5.669203     -1.980492
 15            320          -4.042862     -4.974014     -1.473231
 20            320          -3.612111     -4.073716     -.826483 
 25            320          -3.174832     -3.045896     -.099585 
 30            320          -2.796023     -1.976313      .643443 
 35            320          -2.535979     -.944828       1.342362
 40            320          -2.447074     -.019147       1.944692
 45            320          -2.573489      .744238       2.405074
 50            320          -2.952367      1.295311      2.681616
 55            320          -3.615134      1.584201      2.730449
 60            320          -4.588475      1.553282      2.498419
 65            320          -5.89592       1.125411      1.911967
 70            320          -7.565476      .181717       .856104 
 75            320          -9.664532     -1.490927     -.875351 
 80            320          -12.44742     -4.360667     -3.733513
 85            320          -17.11465     -9.90765      -9.151307
 90            320          -999          -295.6807     -295.6051
 0             325          -4.146364     -7.241828     -2.413654
 5             325          -4.06324      -7.095442     -2.309616
 10            325          -3.827561     -6.664203     -2.007987
 15            325          -3.472841     -5.975513     -1.536043
 20            325          -3.050721     -5.083631     -.938997 
 25            325          -2.623613     -4.065579     -.274723 
 30            325          -2.255989     -3.006607      .395198 
 35            325          -2.00762      -1.986171      1.013418
 40            325          -1.930361     -1.07166       1.530478
 45            325          -2.067861     -.319299       1.904133
 50            325          -2.456707      .221138       2.09572 
 55            325          -3.12774       .500014       2.064703
 60            325          -4.107062      .459922       1.761274
 65            325          -5.417717      .023918       1.115151
 70            325          -7.087506     -.926686       .014729 
 75            325          -9.184209     -2.604868     -1.741913
 80            325          -11.96338     -5.478652     -4.598493
 85            325          -16.62732     -11.0281      -9.971388
 90            325          -999          -999          -999     
 0             330          -3.663041     -8.434254     -2.413654
 5             330          -3.581263     -8.289168     -2.315962
 10            330          -3.349473     -7.861771     -2.033895
 15            330          -3.00094      -7.179183     -1.595549
 20            330          -2.586926     -6.295208     -1.046441
 25            330          -2.169378     -5.286341     -.443729 
 30            330          -1.812276     -4.237352      .1526   
 35            330          -1.5749       -3.227317      .687312 
 40            330          -1.508614     -2.323326      1.113407
 45            330          -1.656564     -1.581354      1.391504
 50            330          -2.054806     -1.050941      1.486367
 55            330          -2.733626     -.781509       1.361504
 60            330          -3.718572     -.830254       .971701 
 65            330          -5.032219     -1.27393       .251682 
 70            330          -6.702177     -2.231057     -.90468  
 75            330          -8.79659      -3.914466     -2.692542
 80            330          -11.57216     -6.792067     -5.544899
 85            330          -16.23294     -12.34384     -10.85656
 90            330          -999          -999          -999     
 0             335          -3.26814      -9.894689     -2.413654
 5             335          -3.187573     -9.750779     -2.321706
 10            335          -2.959293     -9.326855     -2.057404
 15            335          -2.616353     -8.649786     -1.649816
 20            335          -2.20967      -7.772967     -1.145176
 25            335          -1.800778     -6.772418     -.600637 
 30            335          -1.45321      -5.732474     -.075513 
 35            335          -1.225802     -4.731868      .376061 
 40            335          -1.169473     -3.83742       .708582 
 45            335          -1.326908     -3.104874      .884766 
 50            335          -1.733679     -2.583562      .872435 
 55            335          -2.419563     -2.322704      .639436 
 60            335          -3.409597     -2.37931       .146327 
 65            335          -4.725931     -2.829956     -.664991 
 70            335          -6.395996     -3.793009     -1.892038
 75            335          -8.488268     -5.481168     -3.719189
 80            335          -11.26051     -8.362239     -6.563661
 85            335          -15.91835     -13.91612     -11.79256
 90            335          -999          -295.2213     -294.6353
 0             340          -2.953938     -11.73262     -2.413654
 5             340          -2.874413     -11.58973     -2.326669
 10            340          -2.649163     -11.1688      -2.077766
 15            340          -2.311049     -10.4965      -1.697037
 20            340          -1.910701     -9.625866     -1.231693
 25            340          -1.509292     -8.632508     -.739449 
 30            340          -1.169973     -7.60039      -.279801 
 35            340          -.951194      -6.607945      .093155 
 40            340          -.903488      -5.721759      .334182 
 45            340          -1.069142     -4.997379      .406818 
 50            340          -1.483303     -4.483954      .280828 
 55            340          -2.175303     -4.230528     -.072158 
 60            340          -3.169735     -4.293948     -.685266 
 65            340          -4.488374     -4.750639     -1.607227
 70            340          -6.158493     -5.718832     -2.922801
 75            340          -8.24886      -7.411112     -4.799518
 80            340          -11.01816     -10.29519     -7.631349
 85            340          -15.6734      -15.85091     -12.75095
 90            340          -999          -999          -999     
 0             345          -2.714778     -14.15373     -2.413654
 5             345          -2.636098     -14.01166     -2.330698
 10            345          -2.413303     -13.59317     -2.094332
 15            345          -2.079106     -12.92474     -1.735601
 20            345          -1.6839       -12.05912     -1.302776
 25            345          -1.288569     -11.07161     -.854464 
 30            345          -.955953      -10.04585     -.450944 
 35            345          -.744192      -9.060038     -.147149 
 40            345          -.703501      -8.180573      .010787 
 45            345          -.875841      -7.462836     -.014264 
 50            345          -1.296015     -6.955828     -.25232  
 55            345          -1.992988     -6.708453     -.729597 
 60            345          -2.99099      -6.777421     -1.473695
 65            345          -4.311488     -7.239035     -2.522815
 70            345          -5.981626     -8.211414     -3.94466 
 75            345          -8.07041      -9.90705      -5.882055
 80            345          -10.83728     -12.79358     -8.695894
 85            345          -15.49037     -18.35079     -13.67892
 90            345          -999          -999          -999     
 0             350          -2.546625     -17.62025     -2.413654
 5             350          -2.468565     -17.47879     -2.333669
 10            350          -2.247579     -17.06209     -2.106565
 15            350          -1.916269     -16.39651     -1.764167
 20            350          -1.524853     -15.5346      -1.355683
 25            350          -1.134005     -14.55139     -.940655 
 30            350          -.806336      -13.53032     -.580372 
 35            350          -.599754      -12.54941     -.331026 
 40            350          -.564243      -11.67491     -.240335 
 45            350          -.741523      -10.96208     -.34719  
 50            350          -1.166138     -10.45981     -.683037 
 55            350          -1.866783     -10.21691     -1.274127
 60            350          -2.867416     -10.28997     -2.144817
 65            350          -4.189277     -10.75523     -3.323905
 70            350          -5.859414     -11.7307      -4.860038
 75            350          -7.947008     -13.42882     -6.864669
 80            350          -10.71205     -16.31716     -9.656614
 85            350          -15.36354     -21.87547     -14.48836
 90            350          -999          -299.6583     -297.3925
 0             355          -2.446769     -23.60773     -2.413654
 5             355          -2.36909      -23.46664     -2.335489
 10            355          -2.149211     -23.05104     -2.114068
 15            355          -1.819669     -22.38721     -1.781726
 20            355          -1.430576     -21.52757     -1.388312
 25            355          -1.042475     -20.547       -.994067 
 30            355          -.717838      -19.52881     -.661104 
 35            355          -.514433      -18.5509      -.446708 
 40            355          -.482099      -17.67944     -.400075 
 45            355          -.662408      -16.96962     -.56194  
 50            355          -1.089748     -16.47026     -.965721 
 55            355          -1.792644     -16.2301      -1.639063
 60            355          -2.79489      -16.30568     -2.605566
 65            355          -4.117583     -16.77317     -3.888125
 70            355          -5.787713     -17.75054     -5.519774
 75            355          -7.874568     -19.45018     -7.582465
 80            355          -10.63849     -22.33964     -10.35444
 85            355          -15.28899     -27.89863     -15.05715
 90            355          -298.7342     -999          -298.7228
 0             360          -2.413654     -999          -2.413654
 5             360          -2.336102     -999          -2.336102
 10            360          -2.116597     -999          -2.116597
 15            360          -1.787649     -999          -1.787649
 20            360          -1.399339     -999          -1.399339
 25            360          -1.012163     -999          -1.012163
 30            360          -.688548      -999          -.688548 
 35            360          -.486213      -999          -.486213 
 40            360          -.45495       -999          -.45495  
 45            360          -.636281      -999          -.636281 
 50            360          -1.064538     -999          -1.064538
 55            360          -1.768193     -999          -1.768193
 60            360          -2.770982     -999          -2.770982
 65            360          -4.093955     -999          -4.093955
 70            360          -5.764081     -999          -5.764081
 75            360          -7.850686     -999          -7.850686
 80            360          -10.61423     -999          -10.61423
 85            360          -15.26439     -999          -15.26439
 90            360          -999          -999          -999     
