


                               __________________________________________
                              |                                          |
                              |  NUMERICAL ELECTROMAGNETICS CODE (nec2c) |
                              |   Translated to 'C' in Double Precision  |
                              |__________________________________________|



                               ---------------- COMMENTS ----------------
                               Inverted-V, thick wire
                              



                               -------- STRUCTURE SPECIFICATION --------
                                     COORDINATES MUST BE INPUT IN
                                     METERS OR BE SCALED TO METERS
                                     BEFORE STRUCTURE INPUT IS ENDED

  WIRE                                                                                 SEG FIRST  LAST  TAG
   No:        X1         Y1         Z1         X2         Y2         Z2       RADIUS   No:   SEG   SEG  No:
     1    -0.07500    0.00000    0.00000    0.07500    0.00000    0.00000    0.00250     3     1     3    1
     2    -0.07500    0.00000    0.00000   -4.58993    0.00000   -2.65000    0.00250    90     4    93    2
     3     0.07500    0.00000    0.00000    4.58993    0.00000   -2.65000    0.00250    90    94   183    3
     THE STRUCTURE HAS BEEN MOVED, MOVE DATA CARD IS:
     0     0    0.00000    0.00000    0.00000    0.00000    0.00000   10.00000    0.00000

     GROUND PLANE SPECIFIED.
     WHERE WIRE ENDS TOUCH GROUND, CURRENT WILL BE INTERPOLATED TO IMAGE IN GROUND PLANE.


     TOTAL SEGMENTS USED: 183   SEGMENTS IN A SYMMETRIC CELL: 183   SYMMETRY FLAG: 0


                               ---------- SEGMENTATION DATA ----------
                                        COORDINATES IN METERS
                            I+ AND I- INDICATE THE SEGMENTS BEFORE AND AFTER I

   SEG    COORDINATES OF SEGM CENTER     SEGM    ORIENTATION ANGLES    WIRE    CONNECTION DATA   TAG
   No:       X         Y         Z      LENGTH     ALPHA      BETA    RADIUS    I-     I    I+   No:
     1   -0.0500    0.0000   10.0000    0.0500    0.0000    0.0000    0.0025    -4     1     2     1
     2   -0.0000    0.0000   10.0000    0.0500    0.0000    0.0000    0.0025     1     2     3     1
     3    0.0500    0.0000   10.0000    0.0500    0.0000    0.0000    0.0025     2     3    94     1
     4   -0.1001    0.0000    9.9853    0.0582  -30.4104  180.0000    0.0025    -1     4     5     2
     5   -0.1502    0.0000    9.9558    0.0582  -30.4104  180.0000    0.0025     4     5     6     2
     6   -0.2004    0.0000    9.9264    0.0582  -30.4104  180.0000    0.0025     5     6     7     2
     7   -0.2506    0.0000    9.8969    0.0582  -30.4104  180.0000    0.0025     6     7     8     2
     8   -0.3007    0.0000    9.8675    0.0582  -30.4104  180.0000    0.0025     7     8     9     2
     9   -0.3509    0.0000    9.8381    0.0582  -30.4104  180.0000    0.0025     8     9    10     2
    10   -0.4011    0.0000    9.8086    0.0582  -30.4104  180.0000    0.0025     9    10    11     2
    11   -0.4512    0.0000    9.7792    0.0582  -30.4104  180.0000    0.0025    10    11    12     2
    12   -0.5014    0.0000    9.7497    0.0582  -30.4104  180.0000    0.0025    11    12    13     2
    13   -0.5516    0.0000    9.7203    0.0582  -30.4104  180.0000    0.0025    12    13    14     2
    14   -0.6017    0.0000    9.6908    0.0582  -30.4104  180.0000    0.0025    13    14    15     2
    15   -0.6519    0.0000    9.6614    0.0582  -30.4104  180.0000    0.0025    14    15    16     2
    16   -0.7021    0.0000    9.6319    0.0582  -30.4104  180.0000    0.0025    15    16    17     2
    17   -0.7522    0.0000    9.6025    0.0582  -30.4104  180.0000    0.0025    16    17    18     2
    18   -0.8024    0.0000    9.5731    0.0582  -30.4104  180.0000    0.0025    17    18    19     2
    19   -0.8526    0.0000    9.5436    0.0582  -30.4104  180.0000    0.0025    18    19    20     2
    20   -0.9027    0.0000    9.5142    0.0582  -30.4104  180.0000    0.0025    19    20    21     2
    21   -0.9529    0.0000    9.4847    0.0582  -30.4104  180.0000    0.0025    20    21    22     2
    22   -1.0031    0.0000    9.4553    0.0582  -30.4104  180.0000    0.0025    21    22    23     2
    23   -1.0532    0.0000    9.4258    0.0582  -30.4104  180.0000    0.0025    22    23    24     2
    24   -1.1034    0.0000    9.3964    0.0582  -30.4104  180.0000    0.0025    23    24    25     2
    25   -1.1536    0.0000    9.3669    0.0582  -30.4104  180.0000    0.0025    24    25    26     2
    26   -1.2037    0.0000    9.3375    0.0582  -30.4104  180.0000    0.0025    25    26    27     2
    27   -1.2539    0.0000    9.3081    0.0582  -30.4104  180.0000    0.0025    26    27    28     2
    28   -1.3041    0.0000    9.2786    0.0582  -30.4104  180.0000    0.0025    27    28    29     2
    29   -1.3542    0.0000    9.2492    0.0582  -30.4104  180.0000    0.0025    28    29    30     2
    30   -1.4044    0.0000    9.2197    0.0582  -30.4104  180.0000    0.0025    29    30    31     2
    31   -1.4546    0.0000    9.1903    0.0582  -30.4104  180.0000    0.0025    30    31    32     2
    32   -1.5047    0.0000    9.1608    0.0582  -30.4104  180.0000    0.0025    31    32    33     2
    33   -1.5549    0.0000    9.1314    0.0582  -30.4104  180.0000    0.0025    32    33    34     2
    34   -1.6051    0.0000    9.1019    0.0582  -30.4104  180.0000    0.0025    33    34    35     2
    35   -1.6552    0.0000    9.0725    0.0582  -30.4104  180.0000    0.0025    34    35    36     2
    36   -1.7054    0.0000    9.0431    0.0582  -30.4104  180.0000    0.0025    35    36    37     2
    37   -1.7556    0.0000    9.0136    0.0582  -30.4104  180.0000    0.0025    36    37    38     2
    38   -1.8057    0.0000    8.9842    0.0582  -30.4104  180.0000    0.0025    37    38    39     2
    39   -1.8559    0.0000    8.9547    0.0582  -30.4104  180.0000    0.0025    38    39    40     2
    40   -1.9061    0.0000    8.9253    0.0582  -30.4104  180.0000    0.0025    39    40    41     2
    41   -1.9562    0.0000    8.8958    0.0582  -30.4104  180.0000    0.0025    40    41    42     2
    42   -2.0064    0.0000    8.8664    0.0582  -30.4104  180.0000    0.0025    41    42    43     2
    43   -2.0566    0.0000    8.8369    0.0582  -30.4104  180.0000    0.0025    42    43    44     2
    44   -2.1067    0.0000    8.8075    0.0582  -30.4104  180.0000    0.0025    43    44    45     2
    45   -2.1569    0.0000    8.7781    0.0582  -30.4104  180.0000    0.0025    44    45    46     2
    46   -2.2071    0.0000    8.7486    0.0582  -30.4104  180.0000    0.0025    45    46    47     2
    47   -2.2572    0.0000    8.7192    0.0582  -30.4104  180.0000    0.0025    46    47    48     2
    48   -2.3074    0.0000    8.6897    0.0582  -30.4104  180.0000    0.0025    47    48    49     2
    49   -2.3575    0.0000    8.6603    0.0582  -30.4104  180.0000    0.0025    48    49    50     2
    50   -2.4077    0.0000    8.6308    0.0582  -30.4104  180.0000    0.0025    49    50    51     2
    51   -2.4579    0.0000    8.6014    0.0582  -30.4104  180.0000    0.0025    50    51    52     2
    52   -2.5080    0.0000    8.5719    0.0582  -30.4104  180.0000    0.0025    51    52    53     2
    53   -2.5582    0.0000    8.5425    0.0582  -30.4104  180.0000    0.0025    52    53    54     2
    54   -2.6084    0.0000    8.5131    0.0582  -30.4104  180.0000    0.0025    53    54    55     2
    55   -2.6585    0.0000    8.4836    0.0582  -30.4104  180.0000    0.0025    54    55    56     2
    56   -2.7087    0.0000    8.4542    0.0582  -30.4104  180.0000    0.0025    55    56    57     2
    57   -2.7589    0.0000    8.4247    0.0582  -30.4104  180.0000    0.0025    56    57    58     2
    58   -2.8090    0.0000    8.3953    0.0582  -30.4104  180.0000    0.0025    57    58    59     2
    59   -2.8592    0.0000    8.3658    0.0582  -30.4104  180.0000    0.0025    58    59    60     2
    60   -2.9094    0.0000    8.3364    0.0582  -30.4104  180.0000    0.0025    59    60    61     2
    61   -2.9595    0.0000    8.3069    0.0582  -30.4104  180.0000    0.0025    60    61    62     2
    62   -3.0097    0.0000    8.2775    0.0582  -30.4104  180.0000    0.0025    61    62    63     2
    63   -3.0599    0.0000    8.2481    0.0582  -30.4104  180.0000    0.0025    62    63    64     2
    64   -3.1100    0.0000    8.2186    0.0582  -30.4104  180.0000    0.0025    63    64    65     2
    65   -3.1602    0.0000    8.1892    0.0582  -30.4104  180.0000    0.0025    64    65    66     2
    66   -3.2104    0.0000    8.1597    0.0582  -30.4104  180.0000    0.0025    65    66    67     2
    67   -3.2605    0.0000    8.1303    0.0582  -30.4104  180.0000    0.0025    66    67    68     2
    68   -3.3107    0.0000    8.1008    0.0582  -30.4104  180.0000    0.0025    67    68    69     2
    69   -3.3609    0.0000    8.0714    0.0582  -30.4104  180.0000    0.0025    68    69    70     2
    70   -3.4110    0.0000    8.0419    0.0582  -30.4104  180.0000    0.0025    69    70    71     2
    71   -3.4612    0.0000    8.0125    0.0582  -30.4104  180.0000    0.0025    70    71    72     2
    72   -3.5114    0.0000    7.9831    0.0582  -30.4104  180.0000    0.0025    71    72    73     2
    73   -3.5615    0.0000    7.9536    0.0582  -30.4104  180.0000    0.0025    72    73    74     2
    74   -3.6117    0.0000    7.9242    0.0582  -30.4104  180.0000    0.0025    73    74    75     2
    75   -3.6619    0.0000    7.8947    0.0582  -30.4104  180.0000    0.0025    74    75    76     2
    76   -3.7120    0.0000    7.8653    0.0582  -30.4104  180.0000    0.0025    75    76    77     2
    77   -3.7622    0.0000    7.8358    0.0582  -30.4104  180.0000    0.0025    76    77    78     2
    78   -3.8124    0.0000    7.8064    0.0582  -30.4104  180.0000    0.0025    77    78    79     2
    79   -3.8625    0.0000    7.7769    0.0582  -30.4104  180.0000    0.0025    78    79    80     2
    80   -3.9127    0.0000    7.7475    0.0582  -30.4104  180.0000    0.0025    79    80    81     2
    81   -3.9629    0.0000    7.7181    0.0582  -30.4104  180.0000    0.0025    80    81    82     2
    82   -4.0130    0.0000    7.6886    0.0582  -30.4104  180.0000    0.0025    81    82    83     2
    83   -4.0632    0.0000    7.6592    0.0582  -30.4104  180.0000    0.0025    82    83    84     2
    84   -4.1134    0.0000    7.6297    0.0582  -30.4104  180.0000    0.0025    83    84    85     2
    85   -4.1635    0.0000    7.6003    0.0582  -30.4104  180.0000    0.0025    84    85    86     2
    86   -4.2137    0.0000    7.5708    0.0582  -30.4104  180.0000    0.0025    85    86    87     2
    87   -4.2639    0.0000    7.5414    0.0582  -30.4104  180.0000    0.0025    86    87    88     2
    88   -4.3140    0.0000    7.5119    0.0582  -30.4104  180.0000    0.0025    87    88    89     2
    89   -4.3642    0.0000    7.4825    0.0582  -30.4104  180.0000    0.0025    88    89    90     2
    90   -4.4143    0.0000    7.4531    0.0582  -30.4104  180.0000    0.0025    89    90    91     2
    91   -4.4645    0.0000    7.4236    0.0582  -30.4104  180.0000    0.0025    90    91    92     2
    92   -4.5147    0.0000    7.3942    0.0582  -30.4104  180.0000    0.0025    91    92    93     2
    93   -4.5648    0.0000    7.3647    0.0582  -30.4104  180.0000    0.0025    92    93     0     2
    94    0.1001    0.0000    9.9853    0.0582  -30.4104    0.0000    0.0025     3    94    95     3
    95    0.1502    0.0000    9.9558    0.0582  -30.4104    0.0000    0.0025    94    95    96     3
    96    0.2004    0.0000    9.9264    0.0582  -30.4104    0.0000    0.0025    95    96    97     3
    97    0.2506    0.0000    9.8969    0.0582  -30.4104    0.0000    0.0025    96    97    98     3
    98    0.3007    0.0000    9.8675    0.0582  -30.4104    0.0000    0.0025    97    98    99     3
    99    0.3509    0.0000    9.8381    0.0582  -30.4104    0.0000    0.0025    98    99   100     3
   100    0.4011    0.0000    9.8086    0.0582  -30.4104    0.0000    0.0025    99   100   101     3
   101    0.4512    0.0000    9.7792    0.0582  -30.4104    0.0000    0.0025   100   101   102     3
   102    0.5014    0.0000    9.7497    0.0582  -30.4104    0.0000    0.0025   101   102   103     3
   103    0.5516    0.0000    9.7203    0.0582  -30.4104    0.0000    0.0025   102   103   104     3
   104    0.6017    0.0000    9.6908    0.0582  -30.4104    0.0000    0.0025   103   104   105     3
   105    0.6519    0.0000    9.6614    0.0582  -30.4104    0.0000    0.0025   104   105   106     3
   106    0.7021    0.0000    9.6319    0.0582  -30.4104    0.0000    0.0025   105   106   107     3
   107    0.7522    0.0000    9.6025    0.0582  -30.4104    0.0000    0.0025   106   107   108     3
   108    0.8024    0.0000    9.5731    0.0582  -30.4104    0.0000    0.0025   107   108   109     3
   109    0.8526    0.0000    9.5436    0.0582  -30.4104    0.0000    0.0025   108   109   110     3
   110    0.9027    0.0000    9.5142    0.0582  -30.4104    0.0000    0.0025   109   110   111     3
   111    0.9529    0.0000    9.4847    0.0582  -30.4104    0.0000    0.0025   110   111   112     3
   112    1.0031    0.0000    9.4553    0.0582  -30.4104    0.0000    0.0025   111   112   113     3
   113    1.0532    0.0000    9.4258    0.0582  -30.4104    0.0000    0.0025   112   113   114     3
   114    1.1034    0.0000    9.3964    0.0582  -30.4104    0.0000    0.0025   113   114   115     3
   115    1.1536    0.0000    9.3669    0.0582  -30.4104    0.0000    0.0025   114   115   116     3
   116    1.2037    0.0000    9.3375    0.0582  -30.4104    0.0000    0.0025   115   116   117     3
   117    1.2539    0.0000    9.3081    0.0582  -30.4104    0.0000    0.0025   116   117   118     3
   118    1.3041    0.0000    9.2786    0.0582  -30.4104    0.0000    0.0025   117   118   119     3
   119    1.3542    0.0000    9.2492    0.0582  -30.4104    0.0000    0.0025   118   119   120     3
   120    1.4044    0.0000    9.2197    0.0582  -30.4104    0.0000    0.0025   119   120   121     3
   121    1.4546    0.0000    9.1903    0.0582  -30.4104    0.0000    0.0025   120   121   122     3
   122    1.5047    0.0000    9.1608    0.0582  -30.4104    0.0000    0.0025   121   122   123     3
   123    1.5549    0.0000    9.1314    0.0582  -30.4104    0.0000    0.0025   122   123   124     3
   124    1.6051    0.0000    9.1019    0.0582  -30.4104    0.0000    0.0025   123   124   125     3
   125    1.6552    0.0000    9.0725    0.0582  -30.4104    0.0000    0.0025   124   125   126     3
   126    1.7054    0.0000    9.0431    0.0582  -30.4104    0.0000    0.0025   125   126   127     3
   127    1.7556    0.0000    9.0136    0.0582  -30.4104    0.0000    0.0025   126   127   128     3
   128    1.8057    0.0000    8.9842    0.0582  -30.4104    0.0000    0.0025   127   128   129     3
   129    1.8559    0.0000    8.9547    0.0582  -30.4104    0.0000    0.0025   128   129   130     3
   130    1.9061    0.0000    8.9253    0.0582  -30.4104    0.0000    0.0025   129   130   131     3
   131    1.9562    0.0000    8.8958    0.0582  -30.4104    0.0000    0.0025   130   131   132     3
   132    2.0064    0.0000    8.8664    0.0582  -30.4104    0.0000    0.0025   131   132   133     3
   133    2.0566    0.0000    8.8369    0.0582  -30.4104    0.0000    0.0025   132   133   134     3
   134    2.1067    0.0000    8.8075    0.0582  -30.4104    0.0000    0.0025   133   134   135     3
   135    2.1569    0.0000    8.7781    0.0582  -30.4104    0.0000    0.0025   134   135   136     3
   136    2.2071    0.0000    8.7486    0.0582  -30.4104    0.0000    0.0025   135   136   137     3
   137    2.2572    0.0000    8.7192    0.0582  -30.4104    0.0000    0.0025   136   137   138     3
   138    2.3074    0.0000    8.6897    0.0582  -30.4104    0.0000    0.0025   137   138   139     3
   139    2.3575    0.0000    8.6603    0.0582  -30.4104    0.0000    0.0025   138   139   140     3
   140    2.4077    0.0000    8.6308    0.0582  -30.4104    0.0000    0.0025   139   140   141     3
   141    2.4579    0.0000    8.6014    0.0582  -30.4104    0.0000    0.0025   140   141   142     3
   142    2.5080    0.0000    8.5719    0.0582  -30.4104    0.0000    0.0025   141   142   143     3
   143    2.5582    0.0000    8.5425    0.0582  -30.4104    0.0000    0.0025   142   143   144     3
   144    2.6084    0.0000    8.5131    0.0582  -30.4104    0.0000    0.0025   143   144   145     3
   145    2.6585    0.0000    8.4836    0.0582  -30.4104    0.0000    0.0025   144   145   146     3
   146    2.7087    0.0000    8.4542    0.0582  -30.4104    0.0000    0.0025   145   146   147     3
   147    2.7589    0.0000    8.4247    0.0582  -30.4104    0.0000    0.0025   146   147   148     3
   148    2.8090    0.0000    8.3953    0.0582  -30.4104    0.0000    0.0025   147   148   149     3
   149    2.8592    0.0000    8.3658    0.0582  -30.4104    0.0000    0.0025   148   149   150     3
   150    2.9094    0.0000    8.3364    0.0582  -30.4104    0.0000    0.0025   149   150   151     3
   151    2.9595    0.0000    8.3069    0.0582  -30.4104    0.0000    0.0025   150   151   152     3
   152    3.0097    0.0000    8.2775    0.0582  -30.4104    0.0000    0.0025   151   152   153     3
   153    3.0599    0.0000    8.2481    0.0582  -30.4104    0.0000    0.0025   152   153   154     3
   154    3.1100    0.0000    8.2186    0.0582  -30.4104    0.0000    0.0025   153   154   155     3
   155    3.1602    0.0000    8.1892    0.0582  -30.4104    0.0000    0.0025   154   155   156     3
   156    3.2104    0.0000    8.1597    0.0582  -30.4104    0.0000    0.0025   155   156   157     3
   157    3.2605    0.0000    8.1303    0.0582  -30.4104    0.0000    0.0025   156   157   158     3
   158    3.3107    0.0000    8.1008    0.0582  -30.4104    0.0000    0.0025   157   158   159     3
   159    3.3609    0.0000    8.0714    0.0582  -30.4104    0.0000    0.0025   158   159   160     3
   160    3.4110    0.0000    8.0419    0.0582  -30.4104    0.0000    0.0025   159   160   161     3
   161    3.4612    0.0000    8.0125    0.0582  -30.4104    0.0000    0.0025   160   161   162     3
   162    3.5114    0.0000    7.9831    0.0582  -30.4104    0.0000    0.0025   161   162   163     3
   163    3.5615    0.0000    7.9536    0.0582  -30.4104    0.0000    0.0025   162   163   164     3
   164    3.6117    0.0000    7.9242    0.0582  -30.4104    0.0000    0.0025   163   164   165     3
   165    3.6619    0.0000    7.8947    0.0582  -30.4104    0.0000    0.0025   164   165   166     3
   166    3.7120    0.0000    7.8653    0.0582  -30.4104    0.0000    0.0025   165   166   167     3
   167    3.7622    0.0000    7.8358    0.0582  -30.4104    0.0000    0.0025   166   167   168     3
   168    3.8124    0.0000    7.8064    0.0582  -30.4104    0.0000    0.0025   167   168   169     3
   169    3.8625    0.0000    7.7769    0.0582  -30.4104    0.0000    0.0025   168   169   170     3
   170    3.9127    0.0000    7.7475    0.0582  -30.4104    0.0000    0.0025   169   170   171     3
   171    3.9629    0.0000    7.7181    0.0582  -30.4104    0.0000    0.0025   170   171   172     3
   172    4.0130    0.0000    7.6886    0.0582  -30.4104    0.0000    0.0025   171   172   173     3
   173    4.0632    0.0000    7.6592    0.0582  -30.4104    0.0000    0.0025   172   173   174     3
   174    4.1134    0.0000    7.6297    0.0582  -30.4104    0.0000    0.0025   173   174   175     3
   175    4.1635    0.0000    7.6003    0.0582  -30.4104    0.0000    0.0025   174   175   176     3
   176    4.2137    0.0000    7.5708    0.0582  -30.4104    0.0000    0.0025   175   176   177     3
   177    4.2639    0.0000    7.5414    0.0582  -30.4104    0.0000    0.0025   176   177   178     3
   178    4.3140    0.0000    7.5119    0.0582  -30.4104    0.0000    0.0025   177   178   179     3
   179    4.3642    0.0000    7.4825    0.0582  -30.4104    0.0000    0.0025   178   179   180     3
   180    4.4143    0.0000    7.4531    0.0582  -30.4104    0.0000    0.0025   179   180   181     3
   181    4.4645    0.0000    7.4236    0.0582  -30.4104    0.0000    0.0025   180   181   182     3
   182    4.5147    0.0000    7.3942    0.0582  -30.4104    0.0000    0.0025   181   182   183     3
   183    4.5648    0.0000    7.3647    0.0582  -30.4104    0.0000    0.0025   182   183     0     3



  DATA CARD No:   1 EK   1     0     0     0  0.00000E+00  0.00000E+00  0.00000E+00  0.00000E+00  0.00000E+00  0.00000E+00
  DATA CARD No:   2 EX   0     1     1     0  1.00000E+00  0.00000E+00  0.00000E+00  0.00000E+00  0.00000E+00  0.00000E+00
  DATA CARD No:   3 GN   2     0     0     0  1.30000E+01  5.00000E-03  0.00000E+00  0.00000E+00  0.00000E+00  0.00000E+00
  DATA CARD No:   4 LD   5     0     0     0  3.77358E+07  0.00000E+00  0.00000E+00  0.00000E+00  0.00000E+00  0.00000E+00
  DATA CARD No:   5 FR   0    11     0     0  1.38000E+01  4.00000E-02  0.00000E+00  0.00000E+00  0.00000E+00  0.00000E+00
  DATA CARD No:   6 RP   0    19    73     0  0.00000E+00  0.00000E+00  5.00000E+00  5.00000E+00  0.00000E+00  0.00000E+00


                               --------- FREQUENCY --------
                                FREQUENCY : 1.3800E+01 MHz
                                WAVELENGTH: 2.1725E+01 Mtr

                        APPROXIMATE INTEGRATION EMPLOYED FOR SEGMENTS 
                        THAT ARE MORE THAN 1.000 WAVELENGTHS APART
                        THE EXTENDED THIN WIRE KERNEL WILL BE USED


                          ------ STRUCTURE IMPEDANCE LOADING ------
  LOCATION        RESISTANCE  INDUCTANCE  CAPACITANCE     IMPEDANCE (OHMS)   CONDUCTIVITY  CIRCUIT
  ITAG FROM THRU     OHMS       HENRYS      FARADS       REAL     IMAGINARY   MHOS/METER      TYPE
  ALL                                                                        3.7736E+07     WIRE  


                            -------- ANTENNA ENVIRONMENT --------
                            FINITE GROUND - SOMMERFELD SOLUTION
                            RELATIVE DIELECTRIC CONST: 13.000
                            CONDUCTIVITY:  5.000E-03 MHOS/METER
                            COMPLEX DIELECTRIC CONSTANT:  1.3000E+01-6.5130E+00j


                             ---------- MATRIX TIMING ----------
                               FILL: 40 msec  FACTOR: 0 msec


                        --------- ANTENNA INPUT PARAMETERS ---------
  TAG   SEG       VOLTAGE (VOLTS)         CURRENT (AMPS)         IMPEDANCE (OHMS)        ADMITTANCE (MHOS)     POWER
  No:   No:     REAL      IMAGINARY     REAL      IMAGINARY     REAL      IMAGINARY    REAL       IMAGINARY   (WATTS)
    1     1  1.0000E+00  0.0000E+00  1.5643E-02  1.1166E-03  6.3602E+01 -4.5399E+00  1.5643E-02  1.1166E-03  7.8215E-03


                           -------- CURRENTS AND LOCATION --------
                                  DISTANCES IN WAVELENGTHS

   SEG  TAG    COORDINATES OF SEGM CENTER     SEGM    ------------- CURRENT (AMPS) -------------
   No:  No:       X         Y         Z      LENGTH     REAL      IMAGINARY    MAGN        PHASE
     1    1   -0.0023    0.0000    0.4603   0.00230  1.5643E-02  1.1166E-03  1.5683E-02    4.083
     2    1   -0.0000    0.0000    0.4603   0.00230  1.5645E-02  1.0856E-03  1.5682E-02    3.969
     3    1    0.0023    0.0000    0.4603   0.00230  1.5643E-02  1.0543E-03  1.5678E-02    3.856
     4    2   -0.0046    0.0000    0.4596   0.00268 -1.5638E-02 -1.0833E-03  1.5675E-02 -176.037
     5    2   -0.0069    0.0000    0.4583   0.00268 -1.5628E-02 -1.0475E-03  1.5663E-02 -176.165
     6    2   -0.0092    0.0000    0.4569   0.00268 -1.5614E-02 -1.0167E-03  1.5647E-02 -176.274
     7    2   -0.0115    0.0000    0.4556   0.00268 -1.5595E-02 -9.8814E-04  1.5627E-02 -176.375
     8    2   -0.0138    0.0000    0.4542   0.00268 -1.5573E-02 -9.6104E-04  1.5603E-02 -176.469
     9    2   -0.0162    0.0000    0.4529   0.00268 -1.5546E-02 -9.3502E-04  1.5574E-02 -176.558
    10    2   -0.0185    0.0000    0.4515   0.00268 -1.5515E-02 -9.0985E-04  1.5542E-02 -176.644
    11    2   -0.0208    0.0000    0.4501   0.00268 -1.5480E-02 -8.8538E-04  1.5505E-02 -176.727
    12    2   -0.0231    0.0000    0.4488   0.00268 -1.5440E-02 -8.6151E-04  1.5464E-02 -176.806
    13    2   -0.0254    0.0000    0.4474   0.00268 -1.5397E-02 -8.3817E-04  1.5420E-02 -176.884
    14    2   -0.0277    0.0000    0.4461   0.00268 -1.5349E-02 -8.1530E-04  1.5371E-02 -176.959
    15    2   -0.0300    0.0000    0.4447   0.00268 -1.5297E-02 -7.9287E-04  1.5317E-02 -177.033
    16    2   -0.0323    0.0000    0.4434   0.00268 -1.5241E-02 -7.7083E-04  1.5260E-02 -177.105
    17    2   -0.0346    0.0000    0.4420   0.00268 -1.5180E-02 -7.4917E-04  1.5199E-02 -177.175
    18    2   -0.0369    0.0000    0.4407   0.00268 -1.5116E-02 -7.2786E-04  1.5133E-02 -177.243
    19    2   -0.0392    0.0000    0.4393   0.00268 -1.5047E-02 -7.0689E-04  1.5063E-02 -177.310
    20    2   -0.0416    0.0000    0.4379   0.00268 -1.4974E-02 -6.8624E-04  1.4990E-02 -177.376
    21    2   -0.0439    0.0000    0.4366   0.00268 -1.4897E-02 -6.6590E-04  1.4912E-02 -177.441
    22    2   -0.0462    0.0000    0.4352   0.00268 -1.4816E-02 -6.4587E-04  1.4830E-02 -177.504
    23    2   -0.0485    0.0000    0.4339   0.00268 -1.4731E-02 -6.2613E-04  1.4744E-02 -177.566
    24    2   -0.0508    0.0000    0.4325   0.00268 -1.4641E-02 -6.0669E-04  1.4654E-02 -177.627
    25    2   -0.0531    0.0000    0.4312   0.00268 -1.4548E-02 -5.8753E-04  1.4560E-02 -177.687
    26    2   -0.0554    0.0000    0.4298   0.00268 -1.4451E-02 -5.6866E-04  1.4462E-02 -177.747
    27    2   -0.0577    0.0000    0.4285   0.00268 -1.4350E-02 -5.5006E-04  1.4360E-02 -177.805
    28    2   -0.0600    0.0000    0.4271   0.00268 -1.4244E-02 -5.3175E-04  1.4254E-02 -177.862
    29    2   -0.0623    0.0000    0.4257   0.00268 -1.4135E-02 -5.1372E-04  1.4144E-02 -177.919
    30    2   -0.0646    0.0000    0.4244   0.00268 -1.4022E-02 -4.9596E-04  1.4031E-02 -177.974
    31    2   -0.0670    0.0000    0.4230   0.00268 -1.3905E-02 -4.7848E-04  1.3913E-02 -178.029
    32    2   -0.0693    0.0000    0.4217   0.00268 -1.3784E-02 -4.6127E-04  1.3791E-02 -178.083
    33    2   -0.0716    0.0000    0.4203   0.00268 -1.3659E-02 -4.4435E-04  1.3666E-02 -178.137
    34    2   -0.0739    0.0000    0.4190   0.00268 -1.3530E-02 -4.2770E-04  1.3537E-02 -178.189
    35    2   -0.0762    0.0000    0.4176   0.00268 -1.3398E-02 -4.1132E-04  1.3404E-02 -178.242
    36    2   -0.0785    0.0000    0.4163   0.00268 -1.3261E-02 -3.9523E-04  1.3267E-02 -178.293
    37    2   -0.0808    0.0000    0.4149   0.00268 -1.3121E-02 -3.7942E-04  1.3127E-02 -178.344
    38    2   -0.0831    0.0000    0.4135   0.00268 -1.2978E-02 -3.6389E-04  1.2983E-02 -178.394
    39    2   -0.0854    0.0000    0.4122   0.00268 -1.2830E-02 -3.4864E-04  1.2835E-02 -178.443
    40    2   -0.0877    0.0000    0.4108   0.00268 -1.2679E-02 -3.3368E-04  1.2684E-02 -178.493
    41    2   -0.0900    0.0000    0.4095   0.00268 -1.2525E-02 -3.1900E-04  1.2529E-02 -178.541
    42    2   -0.0924    0.0000    0.4081   0.00268 -1.2366E-02 -3.0461E-04  1.2370E-02 -178.589
    43    2   -0.0947    0.0000    0.4068   0.00268 -1.2205E-02 -2.9052E-04  1.2208E-02 -178.636
    44    2   -0.0970    0.0000    0.4054   0.00268 -1.2040E-02 -2.7671E-04  1.2043E-02 -178.683
    45    2   -0.0993    0.0000    0.4041   0.00268 -1.1871E-02 -2.6320E-04  1.1874E-02 -178.730
    46    2   -0.1016    0.0000    0.4027   0.00268 -1.1699E-02 -2.4998E-04  1.1701E-02 -178.776
    47    2   -0.1039    0.0000    0.4013   0.00268 -1.1523E-02 -2.3706E-04  1.1526E-02 -178.821
    48    2   -0.1062    0.0000    0.4000   0.00268 -1.1344E-02 -2.2444E-04  1.1346E-02 -178.867
    49    2   -0.1085    0.0000    0.3986   0.00268 -1.1162E-02 -2.1212E-04  1.1164E-02 -178.911
    50    2   -0.1108    0.0000    0.3973   0.00268 -1.0977E-02 -2.0011E-04  1.0978E-02 -178.956
    51    2   -0.1131    0.0000    0.3959   0.00268 -1.0788E-02 -1.8840E-04  1.0790E-02 -178.999
    52    2   -0.1154    0.0000    0.3946   0.00268 -1.0596E-02 -1.7699E-04  1.0597E-02 -179.043
    53    2   -0.1178    0.0000    0.3932   0.00268 -1.0401E-02 -1.6590E-04  1.0402E-02 -179.086
    54    2   -0.1201    0.0000    0.3919   0.00268 -1.0203E-02 -1.5512E-04  1.0204E-02 -179.129
    55    2   -0.1224    0.0000    0.3905   0.00268 -1.0001E-02 -1.4465E-04  1.0003E-02 -179.171
    56    2   -0.1247    0.0000    0.3892   0.00268 -9.7972E-03 -1.3450E-04  9.7981E-03 -179.213
    57    2   -0.1270    0.0000    0.3878   0.00268 -9.5899E-03 -1.2466E-04  9.5907E-03 -179.255
    58    2   -0.1293    0.0000    0.3864   0.00268 -9.3797E-03 -1.1514E-04  9.3804E-03 -179.297
    59    2   -0.1316    0.0000    0.3851   0.00268 -9.1665E-03 -1.0595E-04  9.1671E-03 -179.338
    60    2   -0.1339    0.0000    0.3837   0.00268 -8.9505E-03 -9.7071E-05  8.9510E-03 -179.379
    61    2   -0.1362    0.0000    0.3824   0.00268 -8.7317E-03 -8.8520E-05  8.7321E-03 -179.419
    62    2   -0.1385    0.0000    0.3810   0.00268 -8.5100E-03 -8.0295E-05  8.5104E-03 -179.459
    63    2   -0.1408    0.0000    0.3797   0.00268 -8.2856E-03 -7.2397E-05  8.2859E-03 -179.499
    64    2   -0.1432    0.0000    0.3783   0.00268 -8.0585E-03 -6.4827E-05  8.0588E-03 -179.539
    65    2   -0.1455    0.0000    0.3770   0.00268 -7.8288E-03 -5.7589E-05  7.8290E-03 -179.579
    66    2   -0.1478    0.0000    0.3756   0.00268 -7.5963E-03 -5.0683E-05  7.5965E-03 -179.618
    67    2   -0.1501    0.0000    0.3742   0.00268 -7.3613E-03 -4.4110E-05  7.3614E-03 -179.657
    68    2   -0.1524    0.0000    0.3729   0.00268 -7.1237E-03 -3.7873E-05  7.1238E-03 -179.695
    69    2   -0.1547    0.0000    0.3715   0.00268 -6.8836E-03 -3.1973E-05  6.8837E-03 -179.734
    70    2   -0.1570    0.0000    0.3702   0.00268 -6.6409E-03 -2.6410E-05  6.6410E-03 -179.772
    71    2   -0.1593    0.0000    0.3688   0.00268 -6.3958E-03 -2.1188E-05  6.3959E-03 -179.810
    72    2   -0.1616    0.0000    0.3675   0.00268 -6.1482E-03 -1.6307E-05  6.1483E-03 -179.848
    73    2   -0.1639    0.0000    0.3661   0.00268 -5.8982E-03 -1.1768E-05  5.8982E-03 -179.886
    74    2   -0.1662    0.0000    0.3648   0.00268 -5.6458E-03 -7.5743E-06  5.6458E-03 -179.923
    75    2   -0.1686    0.0000    0.3634   0.00268 -5.3909E-03 -3.7260E-06  5.3909E-03 -179.960
    76    2   -0.1709    0.0000    0.3620   0.00268 -5.1336E-03 -2.2516E-07  5.1336E-03 -179.997
    77    2   -0.1732    0.0000    0.3607   0.00268 -4.8739E-03  2.9265E-06  4.8739E-03  179.966
    78    2   -0.1755    0.0000    0.3593   0.00268 -4.6118E-03  5.7273E-06  4.6118E-03  179.929
    79    2   -0.1778    0.0000    0.3580   0.00268 -4.3472E-03  8.1753E-06  4.3472E-03  179.892
    80    2   -0.1801    0.0000    0.3566   0.00268 -4.0801E-03  1.0268E-05  4.0801E-03  179.856
    81    2   -0.1824    0.0000    0.3553   0.00268 -3.8105E-03  1.2004E-05  3.8105E-03  179.820
    82    2   -0.1847    0.0000    0.3539   0.00268 -3.5382E-03  1.3380E-05  3.5383E-03  179.783
    83    2   -0.1870    0.0000    0.3526   0.00268 -3.2632E-03  1.4392E-05  3.2633E-03  179.747
    84    2   -0.1893    0.0000    0.3512   0.00268 -2.9853E-03  1.5038E-05  2.9854E-03  179.711
    85    2   -0.1916    0.0000    0.3498   0.00268 -2.7043E-03  1.5313E-05  2.7044E-03  179.676
    86    2   -0.1940    0.0000    0.3485   0.00268 -2.4200E-03  1.5211E-05  2.4200E-03  179.640
    87    2   -0.1963    0.0000    0.3471   0.00268 -2.1318E-03  1.4726E-05  2.1319E-03  179.604
    88    2   -0.1986    0.0000    0.3458   0.00268 -1.8394E-03  1.3847E-05  1.8395E-03  179.569
    89    2   -0.2009    0.0000    0.3444   0.00268 -1.5418E-03  1.2562E-05  1.5419E-03  179.533
    90    2   -0.2032    0.0000    0.3431   0.00268 -1.2379E-03  1.0852E-05  1.2379E-03  179.498
    91    2   -0.2055    0.0000    0.3417   0.00268 -9.2515E-04  8.6843E-06  9.2519E-04  179.462
    92    2   -0.2078    0.0000    0.3404   0.00268 -5.9909E-04  5.9965E-06  5.9912E-04  179.427
    93    2   -0.2101    0.0000    0.3390   0.00268 -2.3699E-04  2.5176E-06  2.3700E-04  179.391
    94    3    0.0046    0.0000    0.4596   0.00268  1.5638E-02  1.0254E-03  1.5671E-02    3.752
    95    3    0.0069    0.0000    0.4583   0.00268  1.5628E-02  9.9646E-04  1.5660E-02    3.648
    96    3    0.0092    0.0000    0.4569   0.00268  1.5614E-02  9.6897E-04  1.5644E-02    3.551
    97    3    0.0115    0.0000    0.4556   0.00268  1.5595E-02  9.4259E-04  1.5624E-02    3.459
    98    3    0.0138    0.0000    0.4542   0.00268  1.5573E-02  9.1708E-04  1.5600E-02    3.370
    99    3    0.0162    0.0000    0.4529   0.00268  1.5546E-02  8.9231E-04  1.5572E-02    3.285
   100    3    0.0185    0.0000    0.4515   0.00268  1.5515E-02  8.6816E-04  1.5539E-02    3.203
   101    3    0.0208    0.0000    0.4501   0.00268  1.5480E-02  8.4456E-04  1.5503E-02    3.123
   102    3    0.0231    0.0000    0.4488   0.00268  1.5440E-02  8.2144E-04  1.5462E-02    3.045
   103    3    0.0254    0.0000    0.4474   0.00268  1.5397E-02  7.9876E-04  1.5417E-02    2.970
   104    3    0.0277    0.0000    0.4461   0.00268  1.5349E-02  7.7649E-04  1.5368E-02    2.896
   105    3    0.0300    0.0000    0.4447   0.00268  1.5297E-02  7.5460E-04  1.5315E-02    2.824
   106    3    0.0323    0.0000    0.4434   0.00268  1.5240E-02  7.3307E-04  1.5258E-02    2.754
   107    3    0.0346    0.0000    0.4420   0.00268  1.5180E-02  7.1188E-04  1.5197E-02    2.685
   108    3    0.0369    0.0000    0.4407   0.00268  1.5115E-02  6.9102E-04  1.5131E-02    2.618
   109    3    0.0392    0.0000    0.4393   0.00268  1.5047E-02  6.7048E-04  1.5062E-02    2.551
   110    3    0.0416    0.0000    0.4379   0.00268  1.4974E-02  6.5024E-04  1.4988E-02    2.487
   111    3    0.0439    0.0000    0.4366   0.00268  1.4897E-02  6.3031E-04  1.4910E-02    2.423
   112    3    0.0462    0.0000    0.4352   0.00268  1.4816E-02  6.1066E-04  1.4828E-02    2.360
   113    3    0.0485    0.0000    0.4339   0.00268  1.4730E-02  5.9131E-04  1.4742E-02    2.299
   114    3    0.0508    0.0000    0.4325   0.00268  1.4641E-02  5.7224E-04  1.4652E-02    2.238
   115    3    0.0531    0.0000    0.4312   0.00268  1.4548E-02  5.5346E-04  1.4558E-02    2.179
   116    3    0.0554    0.0000    0.4298   0.00268  1.4451E-02  5.3495E-04  1.4460E-02    2.120
   117    3    0.0577    0.0000    0.4285   0.00268  1.4349E-02  5.1673E-04  1.4359E-02    2.062
   118    3    0.0600    0.0000    0.4271   0.00268  1.4244E-02  4.9878E-04  1.4253E-02    2.006
   119    3    0.0623    0.0000    0.4257   0.00268  1.4135E-02  4.8111E-04  1.4143E-02    1.949
   120    3    0.0646    0.0000    0.4244   0.00268  1.4021E-02  4.6372E-04  1.4029E-02    1.894
   121    3    0.0670    0.0000    0.4230   0.00268  1.3904E-02  4.4661E-04  1.3911E-02    1.840
   122    3    0.0693    0.0000    0.4217   0.00268  1.3783E-02  4.2977E-04  1.3790E-02    1.786
   123    3    0.0716    0.0000    0.4203   0.00268  1.3658E-02  4.1321E-04  1.3665E-02    1.733
   124    3    0.0739    0.0000    0.4190   0.00268  1.3530E-02  3.9694E-04  1.3536E-02    1.680
   125    3    0.0762    0.0000    0.4176   0.00268  1.3397E-02  3.8094E-04  1.3403E-02    1.629
   126    3    0.0785    0.0000    0.4163   0.00268  1.3261E-02  3.6523E-04  1.3266E-02    1.578
   127    3    0.0808    0.0000    0.4149   0.00268  1.3121E-02  3.4980E-04  1.3126E-02    1.527
   128    3    0.0831    0.0000    0.4135   0.00268  1.2977E-02  3.3465E-04  1.2982E-02    1.477
   129    3    0.0854    0.0000    0.4122   0.00268  1.2830E-02  3.1979E-04  1.2834E-02    1.428
   130    3    0.0877    0.0000    0.4108   0.00268  1.2679E-02  3.0523E-04  1.2683E-02    1.379
   131    3    0.0900    0.0000    0.4095   0.00268  1.2524E-02  2.9095E-04  1.2528E-02    1.331
   132    3    0.0924    0.0000    0.4081   0.00268  1.2366E-02  2.7696E-04  1.2369E-02    1.283
   133    3    0.0947    0.0000    0.4068   0.00268  1.2204E-02  2.6327E-04  1.2207E-02    1.236
   134    3    0.0970    0.0000    0.4054   0.00268  1.2039E-02  2.4988E-04  1.2042E-02    1.189
   135    3    0.0993    0.0000    0.4041   0.00268  1.1870E-02  2.3678E-04  1.1873E-02    1.143
   136    3    0.1016    0.0000    0.4027   0.00268  1.1698E-02  2.2398E-04  1.1700E-02    1.097
   137    3    0.1039    0.0000    0.4013   0.00268  1.1523E-02  2.1149E-04  1.1525E-02    1.051
   138    3    0.1062    0.0000    0.4000   0.00268  1.1344E-02  1.9930E-04  1.1346E-02    1.007
   139    3    0.1085    0.0000    0.3986   0.00268  1.1162E-02  1.8742E-04  1.1163E-02    0.962
   140    3    0.1108    0.0000    0.3973   0.00268  1.0976E-02  1.7584E-04  1.0978E-02    0.918
   141    3    0.1131    0.0000    0.3959   0.00268  1.0787E-02  1.6458E-04  1.0789E-02    0.874
   142    3    0.1154    0.0000    0.3946   0.00268  1.0596E-02  1.5363E-04  1.0597E-02    0.831
   143    3    0.1178    0.0000    0.3932   0.00268  1.0401E-02  1.4299E-04  1.0402E-02    0.788
   144    3    0.1201    0.0000    0.3919   0.00268  1.0202E-02  1.3267E-04  1.0203E-02    0.745
   145    3    0.1224    0.0000    0.3905   0.00268  1.0001E-02  1.2267E-04  1.0002E-02    0.703
   146    3    0.1247    0.0000    0.3892   0.00268  9.7968E-03  1.1298E-04  9.7975E-03    0.661
   147    3    0.1270    0.0000    0.3878   0.00268  9.5895E-03  1.0362E-04  9.5901E-03    0.619
   148    3    0.1293    0.0000    0.3864   0.00268  9.3793E-03  9.4585E-05  9.3798E-03    0.578
   149    3    0.1316    0.0000    0.3851   0.00268  9.1662E-03  8.5873E-05  9.1666E-03    0.537
   150    3    0.1339    0.0000    0.3837   0.00268  8.9501E-03  7.7487E-05  8.9505E-03    0.496
   151    3    0.1362    0.0000    0.3824   0.00268  8.7313E-03  6.9431E-05  8.7316E-03    0.456
   152    3    0.1385    0.0000    0.3810   0.00268  8.5097E-03  6.1705E-05  8.5099E-03    0.415
   153    3    0.1408    0.0000    0.3797   0.00268  8.2853E-03  5.4311E-05  8.2855E-03    0.376
   154    3    0.1432    0.0000    0.3783   0.00268  8.0582E-03  4.7251E-05  8.0583E-03    0.336
   155    3    0.1455    0.0000    0.3770   0.00268  7.8284E-03  4.0526E-05  7.8285E-03    0.297
   156    3    0.1478    0.0000    0.3756   0.00268  7.5960E-03  3.4138E-05  7.5961E-03    0.257
   157    3    0.1501    0.0000    0.3742   0.00268  7.3610E-03  2.8089E-05  7.3610E-03    0.219
   158    3    0.1524    0.0000    0.3729   0.00268  7.1234E-03  2.2379E-05  7.1234E-03    0.180
   159    3    0.1547    0.0000    0.3715   0.00268  6.8833E-03  1.7010E-05  6.8833E-03    0.142
   160    3    0.1570    0.0000    0.3702   0.00268  6.6406E-03  1.1984E-05  6.6407E-03    0.103
   161    3    0.1593    0.0000    0.3688   0.00268  6.3955E-03  7.3028E-06  6.3955E-03    0.065
   162    3    0.1616    0.0000    0.3675   0.00268  6.1479E-03  2.9669E-06  6.1480E-03    0.028
   163    3    0.1639    0.0000    0.3661   0.00268  5.8979E-03 -1.0217E-06  5.8979E-03   -0.010
   164    3    0.1662    0.0000    0.3648   0.00268  5.6455E-03 -4.6617E-06  5.6455E-03   -0.047
   165    3    0.1686    0.0000    0.3634   0.00268  5.3906E-03 -7.9514E-06  5.3906E-03   -0.085
   166    3    0.1709    0.0000    0.3620   0.00268  5.1334E-03 -1.0889E-05  5.1334E-03   -0.122
   167    3    0.1732    0.0000    0.3607   0.00268  4.8737E-03 -1.3473E-05  4.8737E-03   -0.158
   168    3    0.1755    0.0000    0.3593   0.00268  4.6116E-03 -1.5702E-05  4.6116E-03   -0.195
   169    3    0.1778    0.0000    0.3580   0.00268  4.3470E-03 -1.7573E-05  4.3470E-03   -0.232
   170    3    0.1801    0.0000    0.3566   0.00268  4.0799E-03 -1.9085E-05  4.0800E-03   -0.268
   171    3    0.1824    0.0000    0.3553   0.00268  3.8103E-03 -2.0234E-05  3.8104E-03   -0.304
   172    3    0.1847    0.0000    0.3539   0.00268  3.5381E-03 -2.1018E-05  3.5381E-03   -0.340
   173    3    0.1870    0.0000    0.3526   0.00268  3.2631E-03 -2.1434E-05  3.2631E-03   -0.376
   174    3    0.1893    0.0000    0.3512   0.00268  2.9852E-03 -2.1478E-05  2.9853E-03   -0.412
   175    3    0.1916    0.0000    0.3498   0.00268  2.7042E-03 -2.1144E-05  2.7043E-03   -0.448
   176    3    0.1940    0.0000    0.3485   0.00268  2.4198E-03 -2.0427E-05  2.4199E-03   -0.484
   177    3    0.1963    0.0000    0.3471   0.00268  2.1317E-03 -1.9319E-05  2.1318E-03   -0.519
   178    3    0.1986    0.0000    0.3458   0.00268  1.8393E-03 -1.7809E-05  1.8394E-03   -0.555
   179    3    0.2009    0.0000    0.3444   0.00268  1.5418E-03 -1.5882E-05  1.5418E-03   -0.590
   180    3    0.2032    0.0000    0.3431   0.00268  1.2378E-03 -1.3516E-05  1.2379E-03   -0.626
   181    3    0.2055    0.0000    0.3417   0.00268  9.2510E-04 -1.0675E-05  9.2516E-04   -0.661
   182    3    0.2078    0.0000    0.3404   0.00268  5.9905E-04 -7.2850E-06  5.9910E-04   -0.697
   183    3    0.2101    0.0000    0.3390   0.00268  2.3698E-04 -3.0271E-06  2.3700E-04   -0.732


                               ---------- POWER BUDGET ---------
                               INPUT POWER   =  7.8215E-03 Watts
                               RADIATED POWER=  7.7701E-03 Watts
                               STRUCTURE LOSS=  5.1434E-05 Watts
                               NETWORK LOSS  =  0.0000E+00 Watts
                               EFFICIENCY    =   99.34 Percent


                             ---------- RADIATION PATTERNS -----------

 ---- ANGLES -----     ----- POWER GAINS -----       ---- POLARIZATION ----   ---- E(THETA) ----    ----- E(PHI) ------
  THETA      PHI       MAJOR    MINOR    TOTAL       AXIAL      TILT  SENSE   MAGNITUDE    PHASE    MAGNITUDE     PHASE
 DEGREES   DEGREES        DB       DB       DB       RATIO   DEGREES            VOLTS/M   DEGREES     VOLTS/M   DEGREES
    0.00      0.00     -0.65  -999.99    -0.65      0.0000      0.00 LINEAR  6.3540E-01     24.89  0.0000E+00      0.00
    5.00      0.00     -0.60  -999.99    -0.60      0.0000      0.00 LINEAR  6.3945E-01     24.55  0.0000E+00      0.00
   10.00      0.00     -0.44  -999.99    -0.44      0.0000      0.00 LINEAR  6.5086E-01     23.57  0.0000E+00      0.00
   15.00      0.00     -0.22  -999.99    -0.22      0.0000      0.00 LINEAR  6.6790E-01     22.09  0.0000E+00      0.00
   20.00      0.00      0.04  -999.99     0.04      0.0000      0.00 LINEAR  6.8776E-01     20.26  0.0000E+00      0.00
   25.00      0.00      0.27  -999.99     0.27      0.0000      0.00 LINEAR  7.0666E-01     18.25  0.0000E+00      0.00
   30.00      0.00      0.44  -999.99     0.44      0.0000      0.00 LINEAR  7.2029E-01     16.17  0.0000E+00      0.00
   35.00      0.00      0.49  -999.99     0.49      0.0000      0.00 LINEAR  7.2428E-01     14.06  0.0000E+00      0.00
   40.00      0.00      0.37  -999.99     0.37      0.0000      0.00 LINEAR  7.1485E-01     11.96  0.0000E+00      0.00
   45.00      0.00      0.06  -999.99     0.06      0.0000      0.00 LINEAR  6.8948E-01      9.83  0.0000E+00      0.00
   50.00      0.00     -0.49  -999.99    -0.49      0.0000      0.00 LINEAR  6.4734E-01      7.60  0.0000E+00      0.00
   55.00      0.00     -1.30  -999.99    -1.30      0.0000      0.00 LINEAR  5.8969E-01      5.21  0.0000E+00      0.00
   60.00      0.00     -2.40  -999.99    -2.40      0.0000      0.00 LINEAR  5.1969E-01      2.53  0.0000E+00      0.00
   65.00      0.00     -3.80  -999.99    -3.80      0.0000      0.00 LINEAR  4.4199E-01     -0.54  0.0000E+00      0.00
   70.00      0.00     -5.55  -999.99    -5.55      0.0000      0.00 LINEAR  3.6166E-01     -4.08  0.0000E+00      0.00
   75.00      0.00     -7.69  -999.99    -7.69      0.0000      0.00 LINEAR  2.8251E-01     -8.08  0.0000E+00      0.00
   80.00      0.00    -10.50  -999.99   -10.50      0.0000      0.00 LINEAR  2.0453E-01    -12.33  0.0000E+00      0.00
   85.00      0.00    -15.17  -999.99   -15.17      0.0000      0.00 LINEAR  1.1943E-01    -16.48  0.0000E+00      0.00
   90.00      0.00   -999.99  -999.99  -999.99      0.0000      0.00         9.1069E-12    159.50  0.0000E+00      0.00
    0.00      5.00     -0.65  -180.69    -0.65      0.0000     -5.00 LINEAR  6.3298E-01     24.89  5.5379E-02   -155.11
    5.00      5.00     -0.59   -67.75    -0.59      0.0004     -5.04 LEFT    6.3703E-01     24.55  5.6146E-02   -155.74
   10.00      5.00     -0.44   -55.80    -0.44      0.0017     -5.15 LEFT    6.4842E-01     23.57  5.8445E-02   -157.53
   15.00      5.00     -0.21   -48.98    -0.21      0.0036     -5.34 LEFT    6.6544E-01     22.09  6.2263E-02   -160.16
   20.00      5.00      0.05   -44.34     0.05      0.0060     -5.62 LEFT    6.8527E-01     20.26  6.7521E-02   -163.28
   25.00      5.00      0.29   -40.95     0.29      0.0087     -5.98 LEFT    7.0417E-01     18.25  7.4026E-02   -166.53
   30.00      5.00      0.46   -38.44     0.46      0.0113     -6.44 LEFT    7.1783E-01     16.16  8.1434E-02   -169.65
   35.00      5.00      0.52   -36.62     0.52      0.0139     -7.00 LEFT    7.2189E-01     14.06  8.9234E-02   -172.49
   40.00      5.00      0.42   -35.43     0.42      0.0161     -7.68 LEFT    7.1257E-01     11.96  9.6762E-02   -174.99
   45.00      5.00      0.13   -34.89     0.13      0.0178     -8.48 LEFT    6.8735E-01      9.82  1.0322E-01   -177.12
   50.00      5.00     -0.40   -35.10    -0.40      0.0184     -9.42 LEFT    6.4541E-01      7.60  1.0773E-01   -178.91
   55.00      5.00     -1.18   -36.34    -1.18      0.0175    -10.49 LEFT    5.8797E-01      5.20  1.0936E-01    179.63
   60.00      5.00     -2.24   -39.28    -2.24      0.0141    -11.67 LEFT    5.1821E-01      2.52  1.0729E-01    178.46
   65.00      5.00     -3.61   -46.53    -3.61      0.0071    -12.88 LEFT    4.4075E-01     -0.55  1.0079E-01    177.56
   70.00      5.00     -5.31   -52.95    -5.31      0.0041    -13.93 RIGHT   3.6065E-01     -4.10  8.9451E-02    176.92
   75.00      5.00     -7.43   -41.61    -7.43      0.0196    -14.52 RIGHT   2.8172E-01     -8.10  7.3168E-02    176.51
   80.00      5.00    -10.25   -39.05   -10.24      0.0363    -14.24 RIGHT   2.0395E-01    -12.35  5.2267E-02    176.33
   85.00      5.00    -14.98   -41.19   -14.97      0.0489    -12.72 RIGHT   1.1909E-01    -16.51  2.7497E-02    176.35
   90.00      5.00   -999.99  -999.99  -999.99      0.0000      0.00         9.0805E-12    159.47  1.6608E-12     -3.41
    0.00     10.00     -0.65  -999.99    -0.65      0.0000    -10.00 LINEAR  6.2575E-01     24.89  1.1034E-01   -155.11
    5.00     10.00     -0.59   -61.86    -0.59      0.0009    -10.07 LEFT    6.2977E-01     24.55  1.1187E-01   -155.74
   10.00     10.00     -0.43   -49.91    -0.43      0.0034    -10.29 LEFT    6.4110E-01     23.57  1.1646E-01   -157.53
   15.00     10.00     -0.19   -43.11    -0.19      0.0072    -10.67 LEFT    6.5805E-01     22.08  1.2409E-01   -160.17
   20.00     10.00      0.08   -38.48     0.08      0.0118    -11.21 LEFT    6.7782E-01     20.26  1.3460E-01   -163.29
   25.00     10.00      0.34   -35.11     0.34      0.0169    -11.93 LEFT    6.9671E-01     18.24  1.4761E-01   -166.53
   30.00     10.00      0.54   -32.61     0.54      0.0220    -12.82 LEFT    7.1045E-01     16.15  1.6243E-01   -169.66
   35.00     10.00      0.63   -30.82     0.63      0.0268    -13.91 LEFT    7.1470E-01     14.05  1.7804E-01   -172.50
   40.00     10.00      0.57   -29.67     0.57      0.0308    -15.21 LEFT    7.0571E-01     11.94  1.9313E-01   -174.99
   45.00     10.00      0.33   -29.17     0.33      0.0335    -16.74 LEFT    6.8094E-01      9.81  2.0609E-01   -177.13
   50.00     10.00     -0.13   -29.45    -0.13      0.0342    -18.50 LEFT    6.3958E-01      7.58  2.1515E-01   -178.91
   55.00     10.00     -0.83   -30.77    -0.83      0.0318    -20.48 LEFT    5.8281E-01      5.18  2.1848E-01    179.62
   60.00     10.00     -1.80   -33.83    -1.80      0.0250    -22.62 LEFT    5.1375E-01      2.49  2.1439E-01    178.45
   65.00     10.00     -3.07   -41.26    -3.06      0.0123    -24.74 LEFT    4.3700E-01     -0.59  2.0146E-01    177.56
   70.00     10.00     -4.67   -47.34    -4.67      0.0074    -26.57 RIGHT   3.5759E-01     -4.14  1.7883E-01    176.91
   75.00     10.00     -6.74   -36.26    -6.74      0.0334    -27.60 RIGHT   2.7931E-01     -8.15  1.4630E-01    176.51
   80.00     10.00     -9.58   -33.71    -9.57      0.0622    -27.18 RIGHT   2.0219E-01    -12.42  1.0452E-01    176.32
   85.00     10.00    -14.45   -35.73   -14.42      0.0863    -24.61 RIGHT   1.1805E-01    -16.59  5.4990E-02    176.35
   90.00     10.00   -999.99  -999.99  -999.99      0.0000      0.00         9.0013E-12    159.39  3.3214E-12     -3.42
    0.00     15.00     -0.65  -999.99    -0.65      0.0000    -15.00 LINEAR  6.1375E-01     24.89  1.6445E-01   -155.11
    5.00     15.00     -0.59   -58.57    -0.59      0.0013    -15.11 LEFT    6.1774E-01     24.55  1.6675E-01   -155.74
   10.00     15.00     -0.42   -46.63    -0.42      0.0049    -15.43 LEFT    6.2897E-01     23.56  1.7363E-01   -157.53
   15.00     15.00     -0.17   -39.83    -0.17      0.0104    -15.98 LEFT    6.4578E-01     22.08  1.8505E-01   -160.17
   20.00     15.00      0.13   -35.22     0.13      0.0171    -16.77 LEFT    6.6544E-01     20.25  2.0080E-01   -163.29
   25.00     15.00      0.42   -31.87     0.42      0.0243    -17.80 LEFT    6.8430E-01     18.23  2.2031E-01   -166.54
   30.00     15.00      0.66   -29.41     0.66      0.0314    -19.09 LEFT    6.9815E-01     16.14  2.4254E-01   -169.66
   35.00     15.00      0.80   -27.66     0.81      0.0378    -20.64 LEFT    7.0270E-01     14.03  2.6600E-01   -172.51
   40.00     15.00      0.80   -26.57     0.81      0.0428    -22.47 LEFT    6.9424E-01     11.92  2.8868E-01   -175.00
   45.00     15.00      0.64   -26.14     0.65      0.0458    -24.59 LEFT    6.7022E-01      9.78  3.0821E-01   -177.14
   50.00     15.00      0.27   -26.52     0.28      0.0458    -26.99 LEFT    6.2981E-01      7.55  3.2192E-01   -178.92
   55.00     15.00     -0.32   -27.96    -0.31      0.0415    -29.61 LEFT    5.7413E-01      5.14  3.2707E-01    179.61
   60.00     15.00     -1.16   -31.16    -1.16      0.0316    -32.36 LEFT    5.0625E-01      2.45  3.2108E-01    178.44
   65.00     15.00     -2.29   -38.86    -2.29      0.0149    -35.02 LEFT    4.3070E-01     -0.64  3.0184E-01    177.55
   70.00     15.00     -3.79   -44.35    -3.79      0.0094    -37.25 RIGHT   3.5244E-01     -4.21  2.6802E-01    176.90
   75.00     15.00     -5.79   -33.68    -5.78      0.0403    -38.53 RIGHT   2.7527E-01     -8.24  2.1932E-01    176.49
   80.00     15.00     -8.66   -31.15    -8.63      0.0751    -38.11 RIGHT   1.9923E-01    -12.53  1.5672E-01    176.31
   85.00     15.00    -13.68   -33.03   -13.63      0.1078    -35.10 RIGHT   1.1631E-01    -16.72  8.2464E-02    176.33
   90.00     15.00   -999.99  -999.99  -999.99      0.0000      0.00         8.8680E-12    159.26  4.9811E-12     -3.43
    0.00     20.00     -0.65  -999.99    -0.65      0.0000    -20.00 LINEAR  5.9708E-01     24.89  2.1732E-01   -155.11
    5.00     20.00     -0.59   -56.39    -0.59      0.0016    -20.14 LEFT    6.0101E-01     24.54  2.2037E-01   -155.74
   10.00     20.00     -0.40   -44.46    -0.40      0.0063    -20.55 LEFT    6.1209E-01     23.56  2.2952E-01   -157.53
   15.00     20.00     -0.13   -37.68    -0.13      0.0133    -21.26 LEFT    6.2870E-01     22.07  2.4472E-01   -160.18
   20.00     20.00      0.19   -33.09     0.20      0.0217    -22.26 LEFT    6.4818E-01     20.24  2.6568E-01   -163.30
   25.00     20.00      0.53   -29.77     0.53      0.0306    -23.57 LEFT    6.6696E-01     18.22  2.9166E-01   -166.55
   30.00     20.00      0.82   -27.35     0.82      0.0390    -25.19 LEFT    6.8093E-01     16.12  3.2131E-01   -169.68
   35.00     20.00      1.02   -25.66     1.03      0.0463    -27.12 LEFT    6.8587E-01     14.01  3.5263E-01   -172.52
   40.00     20.00      1.11   -24.64     1.12      0.0516    -29.36 LEFT    6.7811E-01     11.89  3.8297E-01   -175.01
   45.00     20.00      1.03   -24.30     1.05      0.0541    -31.91 LEFT    6.5511E-01      9.75  4.0917E-01   -177.15
   50.00     20.00      0.78   -24.78     0.79      0.0527    -34.71 LEFT    6.1601E-01      7.51  4.2766E-01   -178.94
   55.00     20.00      0.31   -26.35     0.32      0.0464    -37.70 LEFT    5.6185E-01      5.09  4.3479E-01    179.60
   60.00     20.00     -0.40   -29.73    -0.40      0.0342    -40.74 LEFT    4.9562E-01      2.39  4.2708E-01    178.43
   65.00     20.00     -1.41   -37.74    -1.41      0.0153    -43.60 LEFT    4.2175E-01     -0.72  4.0170E-01    177.53
   70.00     20.00     -2.79   -42.43    -2.79      0.0104    -45.96 RIGHT   3.4513E-01     -4.31  3.5684E-01    176.89
   75.00     20.00     -4.73   -32.24    -4.73      0.0422    -47.31 RIGHT   2.6953E-01     -8.36  2.9211E-01    176.48
   80.00     20.00     -7.62   -29.74    -7.59      0.0783    -46.97 RIGHT   1.9504E-01    -12.68  2.0879E-01    176.29
   85.00     20.00    -12.78   -31.51   -12.73      0.1157    -43.96 RIGHT   1.1384E-01    -16.89  1.0988E-01    176.32
   90.00     20.00   -999.99  -999.99  -999.99      0.0000      0.00         8.6794E-12    159.07  6.6373E-12     -3.45
    0.00     25.00     -0.65  -165.64    -0.65      0.0000    -25.00 LINEAR  5.7587E-01     24.89  2.6853E-01   -155.11
    5.00     25.00     -0.58   -54.87    -0.58      0.0019    -25.16 LEFT    5.7972E-01     24.54  2.7233E-01   -155.74
   10.00     25.00     -0.38   -42.95    -0.38      0.0074    -25.66 LEFT    5.9059E-01     23.56  2.8372E-01   -157.54
   15.00     25.00     -0.09   -36.19    -0.08      0.0157    -26.49 LEFT    6.0691E-01     22.06  3.0265E-01   -160.18
   20.00     25.00      0.28   -31.62     0.28      0.0254    -27.68 LEFT    6.2612E-01     20.23  3.2879E-01   -163.31
   25.00     25.00      0.66   -28.35     0.66      0.0355    -29.21 LEFT    6.4476E-01     18.20  3.6121E-01   -166.57
   30.00     25.00      1.01   -25.98     1.02      0.0447    -31.09 LEFT    6.5882E-01     16.10  3.9825E-01   -169.69
   35.00     25.00      1.29   -24.35     1.30      0.0522    -33.30 LEFT    6.6419E-01     13.98  4.3744E-01   -172.53
   40.00     25.00      1.46   -23.40     1.47      0.0571    -35.82 LEFT    6.5727E-01     11.86  4.7550E-01   -175.03
   45.00     25.00      1.49   -23.16     1.50      0.0586    -38.62 LEFT    6.3553E-01      9.70  5.0846E-01   -177.17
   50.00     25.00      1.34   -23.75     1.35      0.0556    -41.63 LEFT    5.9806E-01      7.46  5.3189E-01   -178.95
   55.00     25.00      0.99   -25.46     1.00      0.0476    -44.75 LEFT    5.4584E-01      5.03  5.4118E-01    179.58
   60.00     25.00      0.40   -29.00     0.41      0.0339    -47.84 LEFT    4.8173E-01      2.31  5.3197E-01    178.41
   65.00     25.00     -0.49   -37.37    -0.49      0.0143    -50.69 LEFT    4.1005E-01     -0.81  5.0068E-01    177.52
   70.00     25.00     -1.79   -41.07    -1.79      0.0109    -52.98 RIGHT   3.3558E-01     -4.42  4.4501E-01    176.87
   75.00     25.00     -3.68   -31.38    -3.67      0.0412    -54.32 RIGHT   2.6204E-01     -8.51  3.6445E-01    176.46
   80.00     25.00     -6.57   -28.95    -6.55      0.0760    -54.07 RIGHT   1.8958E-01    -12.87  2.6058E-01    176.28
   85.00     25.00    -11.85   -30.65   -11.79      0.1148    -51.28 RIGHT   1.1063E-01    -17.11  1.3716E-01    176.30
   90.00     25.00   -999.99  -999.99  -999.99      0.0000      0.00         8.4340E-12    158.84  8.2861E-12     -3.47
    0.00     30.00     -0.65  -999.99    -0.65      0.0000    -30.00 LINEAR  5.5027E-01     24.89  3.1770E-01   -155.11
    5.00     30.00     -0.58   -53.82    -0.58      0.0022    -30.18 LEFT    5.5402E-01     24.54  3.2223E-01   -155.75
   10.00     30.00     -0.36   -41.90    -0.36      0.0084    -30.74 LEFT    5.6461E-01     23.55  3.3583E-01   -157.54
   15.00     30.00     -0.03   -35.16    -0.03      0.0175    -31.68 LEFT    5.8054E-01     22.05  3.5844E-01   -160.19
   20.00     30.00      0.37   -30.63     0.37      0.0282    -33.01 LEFT    5.9936E-01     20.21  3.8967E-01   -163.32
   25.00     30.00      0.80   -27.40     0.81      0.0389    -34.71 LEFT    6.1775E-01     18.18  4.2846E-01   -166.58
   30.00     30.00      1.22   -25.08     1.23      0.0484    -36.77 LEFT    6.3184E-01     16.07  4.7284E-01   -169.71
   35.00     30.00      1.58   -23.52     1.59      0.0556    -39.15 LEFT    6.3765E-01     13.95  5.1989E-01   -172.55
   40.00     30.00      1.84   -22.65     1.86      0.0596    -41.82 LEFT    6.3166E-01     11.82  5.6569E-01   -175.05
   45.00     30.00      1.97   -22.50     1.98      0.0598    -44.72 LEFT    6.1138E-01      9.66  6.0552E-01   -177.18
   50.00     30.00      1.93   -23.20     1.94      0.0554    -47.77 LEFT    5.7586E-01      7.40  6.3404E-01   -178.97
   55.00     30.00      1.69   -25.02     1.70      0.0462    -50.86 LEFT    5.2598E-01      4.96  6.4570E-01    179.56
   60.00     30.00      1.20   -28.72     1.21      0.0319    -53.85 LEFT    4.6447E-01      2.23  6.3524E-01    178.39
   65.00     30.00      0.40   -37.48     0.40      0.0128    -56.54 LEFT    3.9548E-01     -0.91  5.9832E-01    177.50
   70.00     30.00     -0.82   -40.05    -0.82      0.0109    -58.69 RIGHT   3.2368E-01     -4.56  5.3214E-01    176.85
   75.00     30.00     -2.67   -30.89    -2.66      0.0388    -59.95 RIGHT   2.5271E-01     -8.69  4.3602E-01    176.44
   80.00     30.00     -5.57   -28.53    -5.55      0.0711    -59.79 RIGHT   1.8278E-01    -13.08  3.1186E-01    176.25
   85.00     30.00    -10.93   -30.18   -10.88      0.1090    -57.31 RIGHT   1.0664E-01    -17.36  1.6419E-01    176.28
   90.00     30.00   -999.99  -999.99  -999.99      0.0000      0.00         8.1290E-12    158.58  9.9198E-12     -3.49
    0.00     35.00     -0.65  -999.99    -0.65      0.0000    -35.00 LINEAR  5.2049E-01     24.89  3.6445E-01   -155.11
    5.00     35.00     -0.57   -53.12    -0.57      0.0024    -35.20 LEFT    5.2411E-01     24.54  3.6970E-01   -155.75
   10.00     35.00     -0.34   -41.22    -0.34      0.0090    -35.80 LEFT    5.3433E-01     23.55  3.8544E-01   -157.54
   15.00     35.00      0.02   -34.50     0.03      0.0188    -36.82 LEFT    5.4975E-01     22.04  4.1165E-01   -160.20
   20.00     35.00      0.47   -30.00     0.48      0.0300    -38.24 LEFT    5.6804E-01     20.19  4.4788E-01   -163.34
   25.00     35.00      0.96   -26.81     0.97      0.0409    -40.05 LEFT    5.8605E-01     18.15  4.9293E-01   -166.60
   30.00     35.00      1.45   -24.55     1.46      0.0501    -42.21 LEFT    6.0006E-01     16.04  5.4455E-01   -169.72
   35.00     35.00      1.89   -23.06     1.90      0.0566    -44.67 LEFT    6.0628E-01     13.91  5.9939E-01   -172.57
   40.00     35.00      2.24   -22.26     2.25      0.0596    -47.38 LEFT    6.0127E-01     11.77  6.5292E-01   -175.07
   45.00     35.00      2.46   -22.20     2.47      0.0585    -50.25 LEFT    5.8261E-01      9.60  6.9966E-01   -177.20
   50.00     35.00      2.52   -22.99     2.53      0.0531    -53.21 LEFT    5.4931E-01      7.34  7.3340E-01   -178.99
   55.00     35.00      2.37   -24.92     2.38      0.0432    -56.16 LEFT    5.0215E-01      4.89  7.4764E-01    179.54
   60.00     35.00      1.97   -28.77     1.97      0.0291    -58.95 LEFT    4.4370E-01      2.14  7.3621E-01    178.37
   65.00     35.00      1.24   -37.97     1.24      0.0110    -61.43 LEFT    3.7794E-01     -1.03  6.9399E-01    177.47
   70.00     35.00      0.08   -39.31     0.08      0.0107    -63.40 RIGHT   3.0935E-01     -4.71  6.1766E-01    176.83
   75.00     35.00     -1.74   -30.64    -1.73      0.0359    -64.56 RIGHT   2.4148E-01     -8.88  5.0638E-01    176.42
   80.00     35.00     -4.64   -28.36    -4.62      0.0652    -64.47 RIGHT   1.7461E-01    -13.32  3.6233E-01    176.23
   85.00     35.00    -10.05   -29.99   -10.01      0.1007    -62.31 RIGHT   1.0184E-01    -17.63  1.9081E-01    176.26
   90.00     35.00   -999.99  -999.99  -999.99      0.0000      0.00         7.7627E-12    158.28  1.1529E-11     -3.51
    0.00     40.00     -0.65  -999.99    -0.65      0.0000    -40.00 LINEAR  4.8674E-01     24.89  4.0843E-01   -155.11
    5.00     40.00     -0.56   -52.73    -0.56      0.0025    -40.21 LEFT    4.9020E-01     24.54  4.1437E-01   -155.75
   10.00     40.00     -0.31   -40.83    -0.31      0.0094    -40.84 LEFT    4.9997E-01     23.54  4.3219E-01   -157.55
   15.00     40.00      0.08   -34.14     0.09      0.0194    -41.90 LEFT    5.1475E-01     22.03  4.6188E-01   -160.21
   20.00     40.00      0.58   -29.67     0.58      0.0307    -43.37 LEFT    5.3234E-01     20.17  5.0296E-01   -163.35
   25.00     40.00      1.13   -26.53     1.14      0.0414    -45.22 LEFT    5.4978E-01     18.13  5.5410E-01   -166.61
   30.00     40.00      1.69   -24.33     1.70      0.0500    -47.41 LEFT    5.6358E-01     16.01  6.1281E-01   -169.74
   35.00     40.00      2.20   -22.89     2.22      0.0556    -49.86 LEFT    5.7011E-01     13.87  6.7531E-01   -172.59
   40.00     40.00      2.63   -22.17     2.65      0.0575    -52.50 LEFT    5.6609E-01     11.73  7.3649E-01   -175.09
   45.00     40.00      2.94   -22.18     2.95      0.0554    -55.27 LEFT    5.4916E-01      9.55  7.9014E-01   -177.23
   50.00     40.00      3.08   -23.05     3.09      0.0493    -58.06 LEFT    5.1832E-01      7.27  8.2918E-01   -179.01
   55.00     40.00      3.02   -25.08     3.02      0.0394    -60.79 LEFT    4.7425E-01      4.81  8.4619E-01    179.52
   60.00     40.00      2.69   -29.07     2.69      0.0258    -63.34 LEFT    4.1932E-01      2.04  8.3407E-01    178.35
   65.00     40.00      2.02   -38.75     2.02      0.0092    -65.58 LEFT    3.5731E-01     -1.16  7.8692E-01    177.45
   70.00     40.00      0.90   -38.79     0.90      0.0104    -67.35 RIGHT   2.9249E-01     -4.87  7.0088E-01    176.81
   75.00     40.00     -0.89   -30.58    -0.88      0.0327    -68.41 RIGHT   2.2828E-01     -9.08  5.7495E-01    176.40
   80.00     40.00     -3.79   -28.39    -3.77      0.0589    -68.36 RIGHT   1.6502E-01    -13.57  4.1158E-01    176.21
   85.00     40.00     -9.25   -30.02    -9.21      0.0915    -66.51 RIGHT   9.6224E-02    -17.93  2.1680E-01    176.23
   90.00     40.00   -999.99  -999.99  -999.99      0.0000      0.00         7.3335E-12    157.98  1.3101E-11     -3.54
    0.00     45.00     -0.65  -999.99    -0.65      0.0000    -45.00 LINEAR  4.4930E-01     24.89  4.4930E-01   -155.11
    5.00     45.00     -0.56   -52.61    -0.56      0.0025    -45.21 LEFT    4.5255E-01     24.54  4.5589E-01   -155.75
   10.00     45.00     -0.28   -40.73    -0.28      0.0095    -45.85 LEFT    4.6177E-01     23.53  4.7571E-01   -157.55
   15.00     45.00      0.15   -34.06     0.15      0.0195    -46.92 LEFT    4.7575E-01     22.02  5.0873E-01   -160.22
   20.00     45.00      0.69   -29.63     0.69      0.0305    -48.40 LEFT    4.9246E-01     20.15  5.5446E-01   -163.36
   25.00     45.00      1.30   -26.53     1.30      0.0406    -50.24 LEFT    5.0914E-01     18.10  6.1148E-01   -166.63
   30.00     45.00      1.92   -24.37     1.93      0.0484    -52.37 LEFT    5.2254E-01     15.97  6.7704E-01   -169.76
   35.00     45.00      2.51   -23.00     2.52      0.0530    -54.74 LEFT    5.2925E-01     13.83  7.4697E-01   -172.61
   40.00     45.00      3.02   -22.34     3.03      0.0540    -57.25 LEFT    5.2618E-01     11.68  8.1564E-01   -175.11
   45.00     45.00      3.40   -22.42     3.41      0.0512    -59.83 LEFT    5.1105E-01      9.49  8.7611E-01   -177.25
   50.00     45.00      3.62   -23.36     3.62      0.0448    -62.40 LEFT    4.8288E-01      7.20  9.2047E-01   -179.04
   55.00     45.00      3.62   -25.47     3.62      0.0351    -64.87 LEFT    4.4222E-01      4.72  9.4038E-01    179.50
   60.00     45.00      3.35   -29.59     3.35      0.0226    -67.16 LEFT    3.9127E-01      1.94  9.2785E-01    178.33
   65.00     45.00      2.73   -39.79     2.73      0.0075    -69.16 LEFT    3.3354E-01     -1.28  8.7618E-01    177.43
   70.00     45.00      1.64   -38.50     1.64      0.0098    -70.74 RIGHT   2.7306E-01     -5.03  7.8097E-01    176.78
   75.00     45.00     -0.12   -30.72    -0.12      0.0295    -71.68 RIGHT   2.1308E-01     -9.29  6.4104E-01    176.37
   80.00     45.00     -3.02   -28.61    -3.01      0.0526    -71.67 RIGHT   1.5398E-01    -13.83  4.5909E-01    176.18
   85.00     45.00     -8.51   -30.24    -8.48      0.0819    -70.09 RIGHT   8.9764E-02    -18.23  2.4190E-01    176.21
   90.00     45.00   -999.99  -999.99  -999.99      0.0000      0.00         6.8404E-12    157.66  1.4618E-11     -3.56
    0.00     50.00     -0.65  -999.99    -0.65      0.0000    -50.00 LINEAR  4.0843E-01     24.89  4.8674E-01   -155.11
    5.00     50.00     -0.55   -52.77    -0.55      0.0025    -50.21 LEFT    4.1145E-01     24.53  4.9396E-01   -155.75
   10.00     50.00     -0.25   -40.89    -0.25      0.0093    -50.84 LEFT    4.2002E-01     23.53  5.1565E-01   -157.56
   15.00     50.00      0.21   -34.24     0.21      0.0190    -51.88 LEFT    4.3303E-01     22.01  5.5181E-01   -160.23
   20.00     50.00      0.79   -29.84     0.80      0.0294    -53.32 LEFT    4.4864E-01     20.14  6.0195E-01   -163.38
   25.00     50.00      1.46   -26.78     1.47      0.0387    -55.09 LEFT    4.6434E-01     18.08  6.6453E-01   -166.65
   30.00     50.00      2.15   -24.68     2.15      0.0456    -57.12 LEFT    4.7712E-01     15.94  7.3662E-01   -169.78
   35.00     50.00      2.80   -23.35     2.81      0.0492    -59.34 LEFT    4.8385E-01     13.79  8.1367E-01   -172.63
   40.00     50.00      3.38   -22.75     3.39      0.0494    -61.66 LEFT    4.8164E-01     11.63  8.8955E-01   -175.13
   45.00     50.00      3.83   -22.88     3.84      0.0462    -64.01 LEFT    4.6836E-01      9.43  9.5665E-01   -177.27
   50.00     50.00      4.11   -23.89     4.11      0.0398    -66.32 LEFT    4.4301E-01      7.13  1.0063E+00   -179.06
   55.00     50.00      4.16   -26.07     4.17      0.0308    -68.53 LEFT    4.0608E-01      4.64  1.0291E+00    179.47
   60.00     50.00      3.94   -30.32     3.94      0.0194    -70.55 LEFT    3.5954E-01      1.84  1.0164E+00    178.30
   65.00     50.00      3.36   -41.08     3.36      0.0060    -72.30 LEFT    3.0660E-01     -1.41  9.6070E-01    177.41
   70.00     50.00      2.30   -38.44     2.31      0.0092    -73.68 RIGHT   2.5103E-01     -5.19  8.5695E-01    176.76
   75.00     50.00      0.56   -31.04     0.56      0.0263    -74.52 RIGHT   1.9586E-01     -9.49  7.0383E-01    176.35
   80.00     50.00     -2.34   -29.01    -2.33      0.0464    -74.53 RIGHT   1.4149E-01    -14.09  5.0428E-01    176.16
   85.00     50.00     -7.84   -30.66    -7.82      0.0723    -73.21 RIGHT   8.2463E-02    -18.53  2.6578E-01    176.18
   90.00     50.00   -999.99  -999.99  -999.99      0.0000      0.00         6.2835E-12    157.33  1.6063E-11     -3.59
    0.00     55.00     -0.65  -999.99    -0.65      0.0000    -55.00 LINEAR  3.6445E-01     24.89  5.2049E-01   -155.11
    5.00     55.00     -0.54   -53.20    -0.54      0.0023    -55.20 LEFT    3.6721E-01     24.53  5.2828E-01   -155.75
   10.00     55.00     -0.23   -41.32    -0.23      0.0088    -55.80 LEFT    3.7501E-01     23.52  5.5170E-01   -157.56
   15.00     55.00      0.27   -34.70     0.27      0.0179    -56.79 LEFT    3.8689E-01     21.99  5.9078E-01   -160.24
   20.00     55.00      0.90   -30.33     0.90      0.0275    -58.14 LEFT    4.0119E-01     20.12  6.4501E-01   -163.39
   25.00     55.00      1.61   -27.31     1.62      0.0358    -59.79 LEFT    4.1566E-01     18.05  7.1278E-01   -166.66
   30.00     55.00      2.36   -25.25     2.37      0.0417    -61.67 LEFT    4.2759E-01     15.90  7.9096E-01   -169.80
   35.00     55.00      3.07   -23.97     3.08      0.0445    -63.69 LEFT    4.3414E-01     13.74  8.7471E-01   -172.65
   40.00     55.00      3.71   -23.41     3.72      0.0441    -65.78 LEFT    4.3268E-01     11.58  9.5740E-01   -175.15
   45.00     55.00      4.22   -23.59     4.22      0.0407    -67.87 LEFT    4.2123E-01      9.37  1.0308E+00   -177.29
   50.00     55.00      4.55   -24.65     4.55      0.0347    -69.91 LEFT    3.9885E-01      7.07  1.0855E+00   -179.08
   55.00     55.00      4.65   -26.90     4.65      0.0265    -71.83 LEFT    3.6591E-01      4.56  1.1113E+00    179.45
   60.00     55.00      4.47   -31.26     4.47      0.0164    -73.58 LEFT    3.2418E-01      1.74  1.0987E+00    178.28
   65.00     55.00      3.92   -42.63     3.92      0.0047    -75.10 LEFT    2.7656E-01     -1.53  1.0393E+00    177.38
   70.00     55.00      2.89   -38.65     2.89      0.0084    -76.29 RIGHT   2.2645E-01     -5.35  9.2775E-01    176.74
   75.00     55.00      1.16   -31.58     1.16      0.0231    -77.02 RIGHT   1.7665E-01     -9.70  7.6243E-01    176.32
   80.00     55.00     -1.74   -29.62    -1.73      0.0403    -77.05 RIGHT   1.2758E-01    -14.34  5.4650E-01    176.14
   85.00     55.00     -7.26   -31.30    -7.24      0.0628    -75.95 RIGHT   7.4334E-02    -18.83  2.8810E-01    176.16
   90.00     55.00   -999.99  -999.99  -999.99      0.0000      0.00         5.6634E-12    157.02  1.7414E-11     -3.61
    0.00     60.00     -0.65  -999.99    -0.65      0.0000    -60.00 LINEAR  3.1770E-01     24.89  5.5027E-01   -155.11
    5.00     60.00     -0.54   -53.94    -0.54      0.0021    -60.18 LEFT    3.2015E-01     24.53  5.5858E-01   -155.75
   10.00     60.00     -0.20   -42.06    -0.20      0.0081    -60.73 LEFT    3.2709E-01     23.52  5.8357E-01   -157.57
   15.00     60.00      0.32   -35.45     0.32      0.0163    -61.64 LEFT    3.3766E-01     21.98  6.2529E-01   -160.25
   20.00     60.00      0.99   -31.11     0.99      0.0248    -62.87 LEFT    3.5044E-01     20.10  6.8323E-01   -163.40
   25.00     60.00      1.75   -28.13     1.76      0.0321    -64.36 LEFT    3.6343E-01     18.02  7.5572E-01   -166.68
   30.00     60.00      2.55   -26.10     2.56      0.0369    -66.04 LEFT    3.7426E-01     15.87  8.3948E-01   -169.82
   35.00     60.00      3.32   -24.86     3.33      0.0390    -67.83 LEFT    3.8042E-01     13.71  9.2936E-01   -172.67
   40.00     60.00      4.01   -24.34     4.01      0.0383    -69.66 LEFT    3.7956E-01     11.53  1.0183E+00   -175.17
   45.00     60.00      4.56   -24.56     4.56      0.0350    -71.47 LEFT    3.6991E-01      9.32  1.0976E+00   -177.31
   50.00     60.00      4.93   -25.66     4.94      0.0295    -73.22 LEFT    3.5059E-01      7.00  1.1570E+00   -179.10
   55.00     60.00      5.08   -27.97     5.08      0.0223    -74.86 LEFT    3.2190E-01      4.48  1.1858E+00    179.43
   60.00     60.00      4.93   -32.44     4.93      0.0135    -76.35 LEFT    2.8536E-01      1.64  1.1733E+00    178.26
   65.00     60.00      4.41   -44.46     4.41      0.0036    -77.64 LEFT    2.4352E-01     -1.65  1.1108E+00    177.36
   70.00     60.00      3.39   -39.15     3.39      0.0075    -78.64 RIGHT   1.9940E-01     -5.50  9.9223E-01    176.72
   75.00     60.00      1.67   -32.37     1.68      0.0199    -79.26 RIGHT   1.5553E-01     -9.89  8.1586E-01    176.30
   80.00     60.00     -1.22   -30.48    -1.21      0.0344    -79.31 RIGHT   1.1229E-01    -14.58  5.8503E-01    176.11
   85.00     60.00     -6.75   -32.17    -6.74      0.0535    -78.41 RIGHT   6.5410E-02    -19.12  3.0849E-01    176.14
   90.00     60.00   -999.99  -999.99  -999.99      0.0000      0.00         4.9830E-12    156.72  1.8647E-11     -3.63
    0.00     65.00     -0.65  -999.99    -0.65      0.0000    -65.00 LINEAR  2.6853E-01     24.89  5.7587E-01   -155.11
    5.00     65.00     -0.53   -55.05    -0.53      0.0019    -65.16 LEFT    2.7064E-01     24.53  5.8463E-01   -155.75
   10.00     65.00     -0.18   -43.17    -0.18      0.0071    -65.65 LEFT    2.7661E-01     23.51  6.1099E-01   -157.57
   15.00     65.00      0.37   -36.57     0.37      0.0142    -66.44 LEFT    2.8572E-01     21.97  6.5504E-01   -160.26
   20.00     65.00      1.08   -32.25     1.08      0.0216    -67.52 LEFT    2.9675E-01     20.08  7.1625E-01   -163.42
   25.00     65.00      1.88   -29.29     1.88      0.0276    -68.82 LEFT    3.0803E-01     18.00  7.9292E-01   -166.69
   30.00     65.00      2.72   -27.30     2.72      0.0316    -70.26 LEFT    3.1752E-01     15.84  8.8161E-01   -169.84
   35.00     65.00      3.53   -26.09     3.54      0.0330    -71.79 LEFT    3.2307E-01     13.67  9.7695E-01   -172.69
   40.00     65.00      4.26   -25.60     4.27      0.0321    -73.33 LEFT    3.2266E-01     11.49  1.0715E+00   -175.19
   45.00     65.00      4.86   -25.85     4.86      0.0291    -74.85 LEFT    3.1476E-01      9.27  1.1561E+00   -177.33
   50.00     65.00      5.26   -26.99     5.27      0.0244    -76.31 LEFT    2.9857E-01      6.94  1.2198E+00   -179.12
   55.00     65.00      5.44   -29.35     5.44      0.0182    -77.67 LEFT    2.7433E-01      4.41  1.2512E+00    179.41
   60.00     65.00      5.31   -33.92     5.31      0.0109    -78.91 LEFT    2.4331E-01      1.55  1.2391E+00    178.24
   65.00     65.00      4.82   -46.62     4.82      0.0027    -79.97 LEFT    2.0769E-01     -1.76  1.1739E+00    177.34
   70.00     65.00      3.82   -40.00     3.82      0.0064    -80.80 RIGHT   1.7007E-01     -5.64  1.0492E+00    176.70
   75.00     65.00      2.11   -33.47     2.11      0.0166    -81.32 RIGHT   1.3262E-01    -10.07  8.6316E-01    176.28
   80.00     65.00     -0.78   -31.65    -0.77      0.0286    -81.36 RIGHT   9.5726E-02    -14.81  6.1917E-01    176.10
   85.00     65.00     -6.32   -33.36    -6.31      0.0444    -80.64 RIGHT   5.5748E-02    -19.38  3.2657E-01    176.12
   90.00     65.00   -999.99  -999.99  -999.99      0.0000      0.00         4.2466E-12    156.44  1.9741E-11     -3.65
    0.00     70.00     -0.65  -999.99    -0.65      0.0000    -70.00 LINEAR  2.1732E-01     24.89  5.9708E-01   -155.11
    5.00     70.00     -0.53   -56.64    -0.53      0.0016    -70.13 LEFT    2.1906E-01     24.53  6.0623E-01   -155.76
   10.00     70.00     -0.16   -44.73    -0.16      0.0059    -70.54 LEFT    2.2397E-01     23.50  6.3375E-01   -157.58
   15.00     70.00      0.41   -38.14     0.41      0.0118    -71.21 LEFT    2.3147E-01     21.95  6.7976E-01   -160.26
   20.00     70.00      1.15   -33.84     1.15      0.0178    -72.10 LEFT    2.4056E-01     20.06  7.4375E-01   -163.43
   25.00     70.00      1.99   -30.90     1.99      0.0227    -73.17 LEFT    2.4989E-01     17.97  8.2395E-01   -166.71
   30.00     70.00      2.86   -28.93     2.86      0.0257    -74.36 LEFT    2.5781E-01     15.81  9.1684E-01   -169.85
   35.00     70.00      3.71   -27.75     3.71      0.0267    -75.60 LEFT    2.6254E-01     13.63  1.0168E+00   -172.70
   40.00     70.00      4.47   -27.29     4.48      0.0258    -76.85 LEFT    2.6243E-01     11.45  1.1162E+00   -175.20
   45.00     70.00      5.10   -27.57     5.10      0.0233    -78.07 LEFT    2.5621E-01      9.22  1.2053E+00   -177.34
   50.00     70.00      5.54   -28.73     5.54      0.0193    -79.24 LEFT    2.4321E-01      6.89  1.2728E+00   -179.13
   55.00     70.00      5.74   -31.14     5.74      0.0143    -80.32 LEFT    2.2359E-01      4.34  1.3066E+00    179.40
   60.00     70.00      5.63   -35.81     5.63      0.0085    -81.30 LEFT    1.9839E-01      1.47  1.2948E+00    178.23
   65.00     70.00      5.15   -49.24     5.15      0.0019    -82.14 LEFT    1.6937E-01     -1.86  1.2275E+00    177.33
   70.00     70.00      4.17   -41.30     4.17      0.0053    -82.81 RIGHT   1.3869E-01     -5.77  1.0977E+00    176.68
   75.00     70.00      2.47   -35.00     2.47      0.0134    -83.22 RIGHT   1.0812E-01    -10.25  9.0339E-01    176.27
   80.00     70.00     -0.42   -33.23    -0.41      0.0229    -83.26 RIGHT   7.8018E-02    -15.03  6.4822E-01    176.08
   85.00     70.00     -5.96   -34.97    -5.96      0.0355    -82.70 RIGHT   4.5424E-02    -19.64  3.4195E-01    176.10
   90.00     70.00   -999.99  -999.99  -999.99      0.0000      0.00         3.4599E-12    156.17  2.0673E-11     -3.66
    0.00     75.00     -0.65  -999.99    -0.65      0.0000    -75.00 LINEAR  1.6445E-01     24.89  6.1375E-01   -155.11
    5.00     75.00     -0.52   -58.93    -0.52      0.0012    -75.10 LEFT    1.6580E-01     24.52  6.2320E-01   -155.76
   10.00     75.00     -0.15   -46.98    -0.15      0.0046    -75.42 LEFT    1.6957E-01     23.49  6.5165E-01   -157.58
   15.00     75.00      0.45   -40.38     0.45      0.0091    -75.93 LEFT    1.7532E-01     21.94  6.9923E-01   -160.27
   20.00     75.00      1.21   -36.09     1.21      0.0137    -76.62 LEFT    1.8231E-01     20.04  7.6544E-01   -163.43
   25.00     75.00      2.07   -33.17     2.07      0.0173    -77.45 LEFT    1.8950E-01     17.95  8.4848E-01   -166.72
   30.00     75.00      2.98   -31.21     2.98      0.0195    -78.35 LEFT    1.9564E-01     15.78  9.4474E-01   -169.86
   35.00     75.00      3.85   -30.05     3.85      0.0202    -79.29 LEFT    1.9937E-01     13.60  1.0485E+00   -172.71
   40.00     75.00      4.64   -29.60     4.64      0.0194    -80.24 LEFT    1.9942E-01     11.41  1.1518E+00   -175.22
   45.00     75.00      5.29   -29.91     5.29      0.0174    -81.16 LEFT    1.9481E-01      9.17  1.2445E+00   -177.35
   50.00     75.00      5.75   -31.10     5.75      0.0144    -82.03 LEFT    1.8503E-01      6.83  1.3151E+00   -179.14
   55.00     75.00      5.97   -33.55     5.97      0.0106    -82.84 LEFT    1.7017E-01      4.28  1.3508E+00    179.39
   60.00     75.00      5.88   -38.31     5.88      0.0062    -83.58 LEFT    1.5102E-01      1.39  1.3394E+00    178.22
   65.00     75.00      5.41   -52.58     5.41      0.0013    -84.20 LEFT    1.2894E-01     -1.97  1.2703E+00    177.32
   70.00     75.00      4.44   -43.24     4.44      0.0041    -84.70 RIGHT   1.0556E-01     -5.90  1.1365E+00    176.67
   75.00     75.00      2.74   -37.14     2.74      0.0101    -85.01 RIGHT   8.2269E-02    -10.41  9.3567E-01    176.26
   80.00     75.00     -0.14   -35.43    -0.14      0.0172    -85.05 RIGHT   5.9341E-02    -15.24  6.7155E-01    176.07
   85.00     75.00     -5.69   -37.19    -5.68      0.0266    -84.64 RIGHT   3.4540E-02    -19.89  3.5431E-01    176.09
   90.00     75.00   -999.99  -999.99  -999.99      0.0000      0.00         2.6306E-12    155.90  2.1421E-11     -3.67
    0.00     80.00     -0.65  -999.99    -0.65      0.0000    -80.00 LINEAR  1.1034E-01     24.89  6.2575E-01   -155.11
    5.00     80.00     -0.52   -62.44    -0.52      0.0008    -80.07 LEFT    1.1126E-01     24.51  6.3542E-01   -155.76
   10.00     80.00     -0.14   -50.39    -0.14      0.0031    -80.28 LEFT    1.1383E-01     23.48  6.6455E-01   -157.58
   15.00     80.00      0.47   -43.76     0.47      0.0061    -80.63 LEFT    1.1774E-01     21.92  7.1327E-01   -160.27
   20.00     80.00      1.25   -39.47     1.25      0.0092    -81.10 LEFT    1.2249E-01     20.01  7.8109E-01   -163.44
   25.00     80.00      2.13   -36.55     2.13      0.0116    -81.66 LEFT    1.2739E-01     17.91  8.6620E-01   -166.72
   30.00     80.00      3.06   -34.61     3.06      0.0131    -82.27 LEFT    1.3158E-01     15.74  9.6493E-01   -169.87
   35.00     80.00      3.95   -33.45     3.96      0.0135    -82.90 LEFT    1.3416E-01     13.55  1.0714E+00   -172.72
   40.00     80.00      4.76   -33.02     4.76      0.0129    -83.54 LEFT    1.3425E-01     11.36  1.1776E+00   -175.22
   45.00     80.00      5.43   -33.35     5.43      0.0115    -84.15 LEFT    1.3120E-01      9.12  1.2730E+00   -177.36
   50.00     80.00      5.91   -34.57     5.91      0.0095    -84.74 LEFT    1.2464E-01      6.77  1.3458E+00   -179.15
   55.00     80.00      6.13   -37.06     6.13      0.0069    -85.28 LEFT    1.1464E-01      4.20  1.3830E+00    179.38
   60.00     80.00      6.06   -41.95     6.06      0.0040    -85.76 LEFT    1.0174E-01      1.30  1.3719E+00    178.21
[...]
   30.00    320.00      1.23   -23.41     1.25      0.0586     47.61 RIGHT   4.6603E-01    -10.87  5.1029E-01    -17.61
   35.00    320.00      1.86   -21.92     1.88      0.0647     50.13 RIGHT   4.7697E-01    -13.35  5.7010E-01    -20.87
   40.00    320.00      2.40   -21.12     2.42      0.0667     52.82 RIGHT   4.7885E-01    -15.76  6.2964E-01    -23.68
   45.00    320.00      2.81   -21.00     2.83      0.0645     55.61 RIGHT   4.6926E-01    -18.12  6.8312E-01    -26.04
   50.00    320.00      3.04   -21.65     3.05      0.0583     58.40 RIGHT   4.4699E-01    -20.51  7.2388E-01    -27.98
   55.00    320.00      3.05   -23.27     3.06      0.0483     61.11 RIGHT   4.1237E-01    -23.03  7.4488E-01    -29.56
   60.00    320.00      2.79   -26.36     2.79      0.0349     63.63 RIGHT   3.6732E-01    -25.80  7.3935E-01    -30.81
   65.00    320.00      2.17   -32.44     2.18      0.0186     65.83 RIGHT   3.1507E-01    -28.92  7.0157E-01    -31.77
   70.00    320.00      1.10   -71.11     1.10      0.0002     67.55 LEFT    2.5939E-01    -32.50  6.2774E-01    -32.46
   75.00    320.00     -0.65   -33.99    -0.65      0.0215     68.54 LEFT    2.0340E-01    -36.52  5.1678E-01    -32.90
   80.00    320.00     -3.53   -30.28    -3.52      0.0460     68.44 LEFT    1.4753E-01    -40.79  3.7086E-01    -33.11
   85.00    320.00     -8.97   -31.34    -8.94      0.0761     66.53 LEFT    8.6183E-02    -44.94  1.9566E-01    -33.11
   90.00    320.00   -999.99  -999.99  -999.99      0.0000      0.00         6.5701E-12    131.11  1.1830E-11    147.11
    0.00    325.00     -1.56  -164.72    -1.56      0.0000     35.00 LINEAR  4.0997E-01      0.26  2.8707E-01      0.26
    5.00    325.00     -1.46   -52.23    -1.46      0.0029     35.20 RIGHT   4.1357E-01     -0.20  2.9171E-01     -0.55
   10.00    325.00     -1.18   -40.36    -1.18      0.0110     35.81 RIGHT   4.2379E-01     -1.50  3.0574E-01     -2.83
   15.00    325.00     -0.75   -33.64    -0.75      0.0227     36.84 RIGHT   4.3952E-01     -3.45  3.2941E-01     -6.15
   20.00    325.00     -0.21   -29.13    -0.20      0.0358     38.31 RIGHT   4.5876E-01     -5.79  3.6263E-01    -10.00
   25.00    325.00      0.39   -25.92     0.40      0.0484     40.18 RIGHT   4.7872E-01     -8.30  4.0456E-01    -13.92
   30.00    325.00      0.99   -23.63     1.00      0.0587     42.41 RIGHT   4.9600E-01    -10.83  4.5328E-01    -17.59
   35.00    325.00      1.54   -22.08     1.56      0.0659     44.93 RIGHT   5.0697E-01    -13.30  5.0578E-01    -20.85
   40.00    325.00      1.99   -21.20     2.01      0.0692     47.69 RIGHT   5.0831E-01    -15.70  5.5790E-01    -23.65
   45.00    325.00      2.31   -21.01     2.33      0.0682     50.60 RIGHT   4.9751E-01    -18.05  6.0453E-01    -26.01
   50.00    325.00      2.46   -21.58     2.47      0.0628     53.57 RIGHT   4.7337E-01    -20.44  6.3983E-01    -27.96
   55.00    325.00      2.39   -23.12     2.40      0.0531     56.51 RIGHT   4.3630E-01    -22.94  6.5765E-01    -29.54
   60.00    325.00      2.05   -26.09     2.06      0.0392     59.27 RIGHT   3.8837E-01    -25.68  6.5209E-01    -30.79
   65.00    325.00      1.38   -31.93     1.39      0.0216     61.71 RIGHT   3.3299E-01    -28.78  6.1820E-01    -31.74
   70.00    325.00      0.26   -62.08     0.26      0.0008     63.62 RIGHT   2.7414E-01    -32.32  5.5271E-01    -32.43
   75.00    325.00     -1.51   -34.24    -1.51      0.0231     64.72 LEFT    2.1502E-01    -36.30  4.5472E-01    -32.88
   80.00    325.00     -4.39   -30.33    -4.38      0.0505     64.56 LEFT    1.5601E-01    -40.52  3.2618E-01    -33.09
   85.00    325.00     -9.79   -31.36    -9.76      0.0834     62.35 LEFT    9.1173E-02    -44.62  1.7204E-01    -33.08
   90.00    325.00   -999.99  -999.99  -999.99      0.0000      0.00         6.9516E-12    131.44  1.0400E-11    147.15
    0.00    330.00     -1.56  -999.99    -1.56      0.0000     30.00 LINEAR  4.3343E-01      0.26  2.5024E-01      0.26
    5.00    330.00     -1.47   -52.93    -1.47      0.0027     30.18 RIGHT   4.3717E-01     -0.20  2.5425E-01     -0.55
   10.00    330.00     -1.21   -41.05    -1.21      0.0102     30.74 RIGHT   4.4778E-01     -1.49  2.6637E-01     -2.82
   15.00    330.00     -0.81   -34.31    -0.81      0.0211     31.70 RIGHT   4.6407E-01     -3.43  2.8680E-01     -6.14
   20.00    330.00     -0.31   -29.76    -0.31      0.0337     33.07 RIGHT   4.8395E-01     -5.77  3.1545E-01     -9.98
   25.00    330.00      0.22   -26.51     0.23      0.0461     34.83 RIGHT   5.0447E-01     -8.27  3.5155E-01    -13.90
   30.00    330.00      0.75   -24.16     0.76      0.0568     36.95 RIGHT   5.2206E-01    -10.80  3.9346E-01    -17.56
   35.00    330.00      1.22   -22.54     1.24      0.0649     39.40 RIGHT   5.3296E-01    -13.26  4.3851E-01    -20.82
   40.00    330.00      1.58   -21.59     1.60      0.0694     42.12 RIGHT   5.3371E-01    -15.65  4.8312E-01    -23.63
   45.00    330.00      1.80   -21.31     1.83      0.0699     45.06 RIGHT   5.2175E-01    -17.99  5.2289E-01    -25.99
   50.00    330.00      1.85   -21.79     1.87      0.0658     48.13 RIGHT   4.9591E-01    -20.36  5.5279E-01    -27.93
   55.00    330.00      1.69   -23.22     1.70      0.0568     51.22 RIGHT   4.5667E-01    -22.85  5.6758E-01    -29.51
   60.00    330.00      1.27   -26.06     1.28      0.0430     54.18 RIGHT   4.0624E-01    -25.58  5.6223E-01    -30.76
   65.00    330.00      0.53   -31.67     0.53      0.0245     56.84 RIGHT   3.4820E-01    -28.65  5.3255E-01    -31.72
   70.00    330.00     -0.65   -54.92    -0.65      0.0019     58.93 RIGHT   2.8665E-01    -32.16  4.7578E-01    -32.41
   75.00    330.00     -2.46   -34.70    -2.46      0.0244     60.13 LEFT    2.2488E-01    -36.09  3.9120E-01    -32.85
   80.00    330.00     -5.33   -30.58    -5.32      0.0546     59.90 LEFT    1.6323E-01    -40.26  2.8049E-01    -33.06
   85.00    330.00    -10.67   -31.61   -10.63      0.0898     57.38 LEFT    9.5423E-02    -44.32  1.4790E-01    -33.05
   90.00    330.00   -999.99  -999.99  -999.99      0.0000      0.00         7.2765E-12    131.76  8.9407E-12    147.17
    0.00    335.00     -1.56  -999.99    -1.56      0.0000     25.00 LINEAR  4.5359E-01      0.26  2.1151E-01      0.26
    5.00    335.00     -1.47   -53.99    -1.47      0.0024     25.16 RIGHT   4.5744E-01     -0.20  2.1487E-01     -0.55
   10.00    335.00     -1.23   -42.10    -1.23      0.0091     25.66 RIGHT   4.6836E-01     -1.49  2.2503E-01     -2.82
   15.00    335.00     -0.86   -35.33    -0.86      0.0189     26.51 RIGHT   4.8510E-01     -3.42  2.4214E-01     -6.13
   20.00    335.00     -0.41   -30.76    -0.41      0.0304     27.73 RIGHT   5.0546E-01     -5.75  2.6612E-01     -9.97
   25.00    335.00      0.07   -27.46     0.08      0.0420     29.31 RIGHT   5.2639E-01     -8.24  2.9630E-01    -13.88
   30.00    335.00      0.53   -25.05     0.54      0.0526     31.25 RIGHT   5.4416E-01    -10.76  3.3128E-01    -17.54
   35.00    335.00      0.91   -23.37     0.93      0.0611     33.52 RIGHT   5.5490E-01    -13.22  3.6882E-01    -20.80
   40.00    335.00      1.18   -22.33     1.20      0.0667     36.10 RIGHT   5.5506E-01    -15.60  4.0591E-01    -23.61
   45.00    335.00      1.31   -21.96     1.33      0.0686     38.94 RIGHT   5.4205E-01    -17.93  4.3885E-01    -25.96
   50.00    335.00      1.25   -22.34     1.27      0.0662     41.98 RIGHT   5.1470E-01    -20.29  4.6347E-01    -27.91
   55.00    335.00      0.98   -23.65     0.99      0.0587     45.11 RIGHT   4.7360E-01    -22.77  4.7541E-01    -29.49
   60.00    335.00      0.45   -26.36     0.46      0.0457     48.19 RIGHT   4.2106E-01    -25.48  4.7051E-01    -30.74
   65.00    335.00     -0.38   -31.74    -0.38      0.0270     51.00 RIGHT   3.6078E-01    -28.53  4.4531E-01    -31.70
   70.00    335.00     -1.63   -51.62    -1.63      0.0032     53.24 RIGHT   2.9700E-01    -32.01  3.9758E-01    -32.38
   75.00    335.00     -3.48   -35.39    -3.47      0.0254     54.51 LEFT    2.3305E-01    -35.90  3.2672E-01    -32.83
   80.00    335.00     -6.34   -31.09    -6.33      0.0579     54.21 LEFT    1.6922E-01    -40.02  2.3417E-01    -33.04
   85.00    335.00    -11.60   -32.12   -11.56      0.0941     51.40 LEFT    9.8956E-02    -44.05  1.2345E-01    -33.03
   90.00    335.00   -999.99  -999.99  -999.99      0.0000      0.00         7.5471E-12    132.05  7.4619E-12    147.20
    0.00    340.00     -1.56  -999.99    -1.56      0.0000     20.00 LINEAR  4.7030E-01      0.26  1.7118E-01      0.26
    5.00    340.00     -1.48   -55.51    -1.48      0.0020     20.14 RIGHT   4.7423E-01     -0.19  1.7388E-01     -0.55
   10.00    340.00     -1.25   -43.60    -1.25      0.0076     20.55 RIGHT   4.8539E-01     -1.48  1.8203E-01     -2.81
   15.00    340.00     -0.91   -36.82    -0.91      0.0160     21.27 RIGHT   5.0247E-01     -3.41  1.9577E-01     -6.12
   20.00    340.00     -0.50   -32.22    -0.49      0.0259     22.30 RIGHT   5.2319E-01     -5.73  2.1501E-01     -9.96
   25.00    340.00     -0.06   -28.88    -0.06      0.0362     23.65 RIGHT   5.4439E-01     -8.22  2.3920E-01    -13.86
   30.00    340.00      0.33   -26.42     0.34      0.0459     25.32 RIGHT   5.6226E-01    -10.73  2.6721E-01    -17.53
   35.00    340.00      0.64   -24.67     0.65      0.0542     27.30 RIGHT   5.7280E-01    -13.18  2.9722E-01    -20.78
   40.00    340.00      0.82   -23.56     0.84      0.0604     29.60 RIGHT   5.7241E-01    -15.56  3.2680E-01    -23.59
   45.00    340.00      0.84   -23.09     0.86      0.0636     32.18 RIGHT   5.5847E-01    -17.88  3.5299E-01    -25.95
   50.00    340.00      0.67   -23.36     0.68      0.0629     35.02 RIGHT   5.2986E-01    -20.24  3.7246E-01    -27.89
   55.00    340.00      0.28   -24.55     0.29      0.0574     38.03 RIGHT   4.8721E-01    -22.70  3.8173E-01    -29.47
   60.00    340.00     -0.37   -27.10    -0.36      0.0461     41.07 RIGHT   4.3294E-01    -25.40  3.7751E-01    -30.72
   65.00    340.00     -1.31   -32.26    -1.31      0.0284     43.91 RIGHT   3.7087E-01    -28.43  3.5705E-01    -31.68
   70.00    340.00     -2.65   -50.06    -2.65      0.0043     46.22 RIGHT   3.0529E-01    -31.88  3.1859E-01    -32.36
   75.00    340.00     -4.55   -36.43    -4.54      0.0255     47.53 LEFT    2.3961E-01    -35.73  2.6169E-01    -32.81
   80.00    340.00     -7.40   -31.95    -7.38      0.0593     47.15 LEFT    1.7404E-01    -39.82  1.8750E-01    -33.01
   85.00    340.00    -12.54   -33.03   -12.51      0.0946     44.13 LEFT    1.0180E-01    -43.81  9.8821E-02    -33.00
   90.00    340.00   -999.99  -999.99  -999.99      0.0000      0.00         7.7644E-12    132.30  5.9726E-12    147.22
    0.00    345.00     -1.56  -999.99    -1.56      0.0000     15.00 LINEAR  4.8343E-01      0.26  1.2953E-01      0.26
    5.00    345.00     -1.48   -57.69    -1.48      0.0015     15.11 RIGHT   4.8742E-01     -0.19  1.3157E-01     -0.55
   10.00    345.00     -1.27   -45.77    -1.27      0.0060     15.43 RIGHT   4.9876E-01     -1.48  1.3770E-01     -2.81
   15.00    345.00     -0.95   -38.98    -0.95      0.0125     15.99 RIGHT   5.1608E-01     -3.40  1.4803E-01     -6.11
   20.00    345.00     -0.56   -34.35    -0.56      0.0205     16.80 RIGHT   5.3706E-01     -5.71  1.6248E-01     -9.95
   25.00    345.00     -0.18   -30.98    -0.17      0.0288     17.86 RIGHT   5.5844E-01     -8.20  1.8065E-01    -13.85
   30.00    345.00      0.17   -28.48     0.17      0.0370     19.19 RIGHT   5.7634E-01    -10.71  2.0166E-01    -17.51
   35.00    345.00      0.41   -26.67     0.42      0.0443     20.78 RIGHT   5.8668E-01    -13.15  2.2414E-01    -20.77
   40.00    345.00      0.51   -25.48     0.52      0.0502     22.66 RIGHT   5.8582E-01    -15.52  2.4626E-01    -23.57
   45.00    345.00      0.43   -24.93     0.44      0.0540     24.82 RIGHT   5.7113E-01    -17.84  2.6580E-01    -25.93
   50.00    345.00      0.15   -25.08     0.16      0.0548     27.24 RIGHT   5.4149E-01    -20.19  2.8025E-01    -27.88
   55.00    345.00     -0.37   -26.14    -0.36      0.0514     29.89 RIGHT   4.9763E-01    -22.65  2.8703E-01    -29.45
   60.00    345.00     -1.14   -28.54    -1.14      0.0427     32.64 RIGHT   4.4202E-01    -25.33  2.8368E-01    -30.70
   65.00    345.00     -2.22   -33.49    -2.21      0.0273     35.30 RIGHT   3.7856E-01    -28.34  2.6816E-01    -31.66
   70.00    345.00     -3.66   -49.89    -3.66      0.0049     37.50 RIGHT   3.1162E-01    -31.77  2.3916E-01    -32.35
   75.00    345.00     -5.62   -38.03    -5.61      0.0239     38.75 LEFT    2.4462E-01    -35.60  1.9637E-01    -32.79
   80.00    345.00     -8.45   -33.40    -8.44      0.0566     38.32 LEFT    1.7772E-01    -39.65  1.4066E-01    -33.00
   85.00    345.00    -13.45   -34.57   -13.42      0.0879     35.33 LEFT    1.0398E-01    -43.62  7.4121E-02    -32.99
   90.00    345.00   -999.99  -999.99  -999.99      0.0000      0.00         7.9312E-12    132.50  4.4797E-12    147.23
    0.00    350.00     -1.56  -999.99    -1.56      0.0000     10.00 LINEAR  4.9288E-01      0.26  8.6908E-02      0.26
    5.00    350.00     -1.48   -60.98    -1.48      0.0011     10.07 RIGHT   4.9692E-01     -0.19  8.8265E-02     -0.54
   10.00    350.00     -1.28   -49.06    -1.28      0.0041     10.29 RIGHT   5.0837E-01     -1.47  9.2363E-02     -2.80
   15.00    350.00     -0.97   -42.25    -0.97      0.0086     10.68 RIGHT   5.2586E-01     -3.39  9.9259E-02     -6.11
   20.00    350.00     -0.62   -37.61    -0.61      0.0141     11.23 RIGHT   5.4700E-01     -5.70  1.0891E-01     -9.94
   25.00    350.00     -0.26   -34.21    -0.26      0.0201     11.97 RIGHT   5.6850E-01     -8.19  1.2103E-01    -13.84
   30.00    350.00      0.04   -31.68     0.04      0.0259     12.89 RIGHT   5.8639E-01    -10.69  1.3503E-01    -17.50
   35.00    350.00      0.23   -29.83     0.24      0.0314     14.01 RIGHT   5.9657E-01    -13.13  1.5000E-01    -20.76
   40.00    350.00      0.27   -28.58     0.27      0.0361     15.34 RIGHT   5.9534E-01    -15.50  1.6471E-01    -23.56
   45.00    350.00      0.11   -27.95     0.12      0.0395     16.90 RIGHT   5.8009E-01    -17.81  1.7768E-01    -25.92
   50.00    350.00     -0.27   -28.01    -0.26      0.0410     18.68 RIGHT   5.4972E-01    -20.15  1.8724E-01    -27.86
   55.00    350.00     -0.90   -28.96    -0.89      0.0396     20.68 RIGHT   5.0497E-01    -22.61  1.9167E-01    -29.44
   60.00    350.00     -1.80   -31.21    -1.80      0.0339     22.83 RIGHT   4.4841E-01    -25.28  1.8934E-01    -30.69
   65.00    350.00     -3.01   -35.96    -3.00      0.0225     24.96 RIGHT   3.8397E-01    -28.28  1.7891E-01    -31.65
   70.00    350.00     -4.56   -51.44    -4.56      0.0045     26.78 RIGHT   3.1607E-01    -31.69  1.5951E-01    -32.33
   75.00    350.00     -6.58   -40.73    -6.58      0.0196     27.80 LEFT    2.4814E-01    -35.50  1.3093E-01    -32.78
   80.00    350.00     -9.39   -36.00    -9.38      0.0467     27.39 LEFT    1.8032E-01    -39.53  9.3766E-02    -32.98
   85.00    350.00    -14.24   -37.29   -14.22      0.0704     24.85 LEFT    1.0551E-01    -43.48  4.9405E-02    -32.97
   90.00    350.00   -999.99  -999.99  -999.99      0.0000      0.00         8.0490E-12    132.65  2.9857E-12    147.25
    0.00    355.00     -1.56  -176.76    -1.56      0.0000      5.00 LINEAR  4.9858E-01      0.26  4.3620E-02      0.26
    5.00    355.00     -1.48   -66.87    -1.48      0.0005      5.04 RIGHT   5.0264E-01     -0.19  4.4299E-02     -0.54
   10.00    355.00     -1.29   -54.95    -1.29      0.0021      5.15 RIGHT   5.1416E-01     -1.47  4.6350E-02     -2.80
   15.00    355.00     -0.99   -48.13    -0.99      0.0044      5.34 RIGHT   5.3174E-01     -3.39  4.9802E-02     -6.10
   20.00    355.00     -0.65   -43.47    -0.65      0.0072      5.63 RIGHT   5.5298E-01     -5.70  5.4628E-02     -9.93
   25.00    355.00     -0.31   -40.06    -0.31      0.0103      6.00 RIGHT   5.7454E-01     -8.18  6.0689E-02    -13.83
   30.00    355.00     -0.04   -37.50    -0.03      0.0134      6.47 RIGHT   5.9242E-01    -10.68  6.7689E-02    -17.49
   35.00    355.00      0.12   -35.62     0.12      0.0163      7.05 RIGHT   6.0248E-01    -13.12  7.5167E-02    -20.75
   40.00    355.00      0.11   -34.34     0.12      0.0189      7.74 RIGHT   6.0103E-01    -15.48  8.2511E-02    -23.55
   45.00    355.00     -0.10   -33.66    -0.09      0.0210      8.56 RIGHT   5.8544E-01    -17.80  8.8978E-02    -25.91
   50.00    355.00     -0.54   -33.66    -0.54      0.0221      9.51 RIGHT   5.5461E-01    -20.13  9.3736E-02    -27.86
   55.00    355.00     -1.25   -34.52    -1.25      0.0217     10.60 RIGHT   5.0934E-01    -22.58  9.5925E-02    -29.44
   60.00    355.00     -2.25   -36.66    -2.25      0.0190     11.78 RIGHT   4.5221E-01    -25.25  9.4733E-02    -30.69
   65.00    355.00     -3.56   -41.27    -3.56      0.0130     12.99 RIGHT   3.8718E-01    -28.24  8.9490E-02    -31.64
   70.00    355.00     -5.21   -56.20    -5.21      0.0028     14.05 RIGHT   3.1872E-01    -31.64  7.9768E-02    -32.33
   75.00    355.00     -7.29   -46.15    -7.29      0.0114     14.65 LEFT    2.5024E-01    -35.44  6.5467E-02    -32.77
   80.00    355.00    -10.07   -41.36   -10.07      0.0273     14.38 LEFT    1.8186E-01    -39.45  4.6877E-02    -32.98
   85.00    355.00    -14.78   -42.76   -14.77      0.0399     12.88 LEFT    1.0643E-01    -43.39  2.4698E-02    -32.97
   90.00    355.00   -999.99  -999.99  -999.99      0.0000      0.00         8.1191E-12    132.74  1.4926E-12    147.26
    0.00    360.00     -1.56  -999.99    -1.56      0.0000     -0.00 LINEAR  5.0048E-01      0.26  1.0217E-11   -179.74
    5.00    360.00     -1.49  -999.99    -1.49      0.0000     -0.00 LINEAR  5.0455E-01     -0.19  1.0376E-11    179.46
   10.00    360.00     -1.29  -999.99    -1.29      0.0000     -0.00 LINEAR  5.1610E-01     -1.47  1.0856E-11    177.20
   15.00    360.00     -1.00  -999.99    -1.00      0.0000     -0.00 LINEAR  5.3371E-01     -3.39  1.1663E-11    173.90
   20.00    360.00     -0.66  -999.99    -0.66      0.0000     -0.00 LINEAR  5.5498E-01     -5.70  1.2792E-11    170.07
   25.00    360.00     -0.33  -999.99    -0.33      0.0000     -0.00 LINEAR  5.7655E-01     -8.18  1.4210E-11    166.17
   30.00    360.00     -0.06  -999.99    -0.06      0.0000     -0.00 LINEAR  5.9443E-01    -10.68  1.5847E-11    162.51
   35.00    360.00      0.08  -999.99     0.08      0.0000     -0.00 LINEAR  6.0446E-01    -13.11  1.7596E-11    159.25
   40.00    360.00      0.06  -999.99     0.06      0.0000     -0.00 LINEAR  6.0293E-01    -15.47  1.9313E-11    156.45
   45.00    360.00     -0.17  -999.99    -0.17      0.0000     -0.00 LINEAR  5.8721E-01    -17.79  2.0825E-11    154.09
   50.00    360.00     -0.64  -999.99    -0.64      0.0000     -0.00 LINEAR  5.5624E-01    -20.13  2.1936E-11    152.14
   55.00    360.00     -1.38  -999.99    -1.38      0.0000     -0.00 LINEAR  5.1079E-01    -22.57  2.2446E-11    150.57
   60.00    360.00     -2.41  -999.99    -2.41      0.0000     -0.00 LINEAR  4.5347E-01    -25.24  2.2165E-11    149.32
   65.00    360.00     -3.76  -999.99    -3.76      0.0000     -0.00 LINEAR  3.8825E-01    -28.23  2.0936E-11    148.36
   70.00    360.00     -5.45  -999.99    -5.45      0.0000     -0.00 LINEAR  3.1959E-01    -31.62  1.8660E-11    147.68
   75.00    360.00     -7.55  -999.99    -7.55      0.0000     -0.00 LINEAR  2.5093E-01    -35.42  1.5314E-11    147.24
   80.00    360.00    -10.32  -999.99   -10.32      0.0000     -0.00 LINEAR  1.8237E-01    -39.43  1.0965E-11    147.03
   85.00    360.00    -14.98  -999.99   -14.98      0.0000     -0.00 LINEAR  1.0673E-01    -43.36  5.7769E-12    147.04
   90.00    360.00   -999.99  -999.99  -999.99      0.0000      0.00         8.1423E-12    132.77  3.4912E-22    -32.74
  DATA CARD No:   7 EN   0     0     0     0  0.00000E+00  0.00000E+00  0.00000E+00  0.00000E+00  0.00000E+00  0.00000E+00

  TOTAL RUN TIME: 920 msec