


                               __________________________________________
                              |                                          |
                              |  NUMERICAL ELECTROMAGNETICS CODE (nec2c) |
                              |   Translated to 'C' in Double Precision  |
                              |__________________________________________|



                               ---------------- COMMENTS ----------------
                               Inverted-V, thin wire
                              



                               -------- STRUCTURE SPECIFICATION --------
                                     COORDINATES MUST BE INPUT IN
                                     METERS OR BE SCALED TO METERS
                                     BEFORE STRUCTURE INPUT IS ENDED

  WIRE                                                                                 SEG FIRST  LAST  TAG
   No:        X1         Y1         Z1         X2         Y2         Z2       RADIUS   No:   SEG   SEG  No:
     1    -0.07500    0.00000    0.00000    0.07500    0.00000    0.00000    0.00075     3     1     3    1
     2    -0.07500    0.00000    0.00000   -4.58993    0.00000   -2.65000    0.00075    90     4    93    2
     3     0.07500    0.00000    0.00000    4.58993    0.00000   -2.65000    0.00075    90    94   183    3
     THE STRUCTURE HAS BEEN MOVED, MOVE DATA CARD IS:
     0     0    0.00000    0.00000    0.00000    0.00000    0.00000   10.00000    0.00000

     GROUND PLANE SPECIFIED.
     WHERE WIRE ENDS TOUCH GROUND, CURRENT WILL BE INTERPOLATED TO IMAGE IN GROUND PLANE.


     TOTAL SEGMENTS USED: 183   SEGMENTS IN A SYMMETRIC CELL: 183   SYMMETRY FLAG: 0


                               ---------- SEGMENTATION DATA ----------
                                        COORDINATES IN METERS
                            I+ AND I- INDICATE THE SEGMENTS BEFORE AND AFTER I

   SEG    COORDINATES OF SEGM CENTER     SEGM    ORIENTATION ANGLES    WIRE    CONNECTION DATA   TAG
   No:       X         Y         Z      LENGTH     ALPHA      BETA    RADIUS    I-     I    I+   No:
     1   -0.0500    0.0000   10.0000    0.0500    0.0000    0.0000    0.0008    -4     1     2     1
     2   -0.0000    0.0000   10.0000    0.0500    0.0000    0.0000    0.0008     1     2     3     1
     3    0.0500    0.0000   10.0000    0.0500    0.0000    0.0000    0.0008     2     3    94     1
     4   -0.1001    0.0000    9.9853    0.0582  -30.4104  180.0000    0.0008    -1     4     5     2
     5   -0.1502    0.0000    9.9558    0.0582  -30.4104  180.0000    0.0008     4     5     6     2
     6   -0.2004    0.0000    9.9264    0.0582  -30.4104  180.0000    0.0008     5     6     7     2
     7   -0.2506    0.0000    9.8969    0.0582  -30.4104  180.0000    0.0008     6     7     8     2
     8   -0.3007    0.0000    9.8675    0.0582  -30.4104  180.0000    0.0008     7     8     9     2
     9   -0.3509    0.0000    9.8381    0.0582  -30.4104  180.0000    0.0008     8     9    10     2
    10   -0.4011    0.0000    9.8086    0.0582  -30.4104  180.0000    0.0008     9    10    11     2
    11   -0.4512    0.0000    9.7792    0.0582  -30.4104  180.0000    0.0008    10    11    12     2
    12   -0.5014    0.0000    9.7497    0.0582  -30.4104  180.0000    0.0008    11    12    13     2
    13   -0.5516    0.0000    9.7203    0.0582  -30.4104  180.0000    0.0008    12    13    14     2
    14   -0.6017    0.0000    9.6908    0.0582  -30.4104  180.0000    0.0008    13    14    15     2
    15   -0.6519    0.0000    9.6614    0.0582  -30.4104  180.0000    0.0008    14    15    16     2
    16   -0.7021    0.0000    9.6319    0.0582  -30.4104  180.0000    0.0008    15    16    17     2
    17   -0.7522    0.0000    9.6025    0.0582  -30.4104  180.0000    0.0008    16    17    18     2
    18   -0.8024    0.0000    9.5731    0.0582  -30.4104  180.0000    0.0008    17    18    19     2
    19   -0.8526    0.0000    9.5436    0.0582  -30.4104  180.0000    0.0008    18    19    20     2
    20   -0.9027    0.0000    9.5142    0.0582  -30.4104  180.0000    0.0008    19    20    21     2
    21   -0.9529    0.0000    9.4847    0.0582  -30.4104  180.0000    0.0008    20    21    22     2
    22   -1.0031    0.0000    9.4553    0.0582  -30.4104  180.0000    0.0008    21    22    23     2
    23   -1.0532    0.0000    9.4258    0.0582  -30.4104  180.0000    0.0008    22    23    24     2
    24   -1.1034    0.0000    9.3964    0.0582  -30.4104  180.0000    0.0008    23    24    25     2
    25   -1.1536    0.0000    9.3669    0.0582  -30.4104  180.0000    0.0008    24    25    26     2
    26   -1.2037    0.0000    9.3375    0.0582  -30.4104  180.0000    0.0008    25    26    27     2
    27   -1.2539    0.0000    9.3081    0.0582  -30.4104  180.0000    0.0008    26    27    28     2
    28   -1.3041    0.0000    9.2786    0.0582  -30.4104  180.0000    0.0008    27    28    29     2
    29   -1.3542    0.0000    9.2492    0.0582  -30.4104  180.0000    0.0008    28    29    30     2
    30   -1.4044    0.0000    9.2197    0.0582  -30.4104  180.0000    0.0008    29    30    31     2
    31   -1.4546    0.0000    9.1903    0.0582  -30.4104  180.0000    0.0008    30    31    32     2
    32   -1.5047    0.0000    9.1608    0.0582  -30.4104  180.0000    0.0008    31    32    33     2
    33   -1.5549    0.0000    9.1314    0.0582  -30.4104  180.0000    0.0008    32    33    34     2
    34   -1.6051    0.0000    9.1019    0.0582  -30.4104  180.0000    0.0008    33    34    35     2
    35   -1.6552    0.0000    9.0725    0.0582  -30.4104  180.0000    0.0008    34    35    36     2
    36   -1.7054    0.0000    9.0431    0.0582  -30.4104  180.0000    0.0008    35    36    37     2
    37   -1.7556    0.0000    9.0136    0.0582  -30.4104  180.0000    0.0008    36    37    38     2
    38   -1.8057    0.0000    8.9842    0.0582  -30.4104  180.0000    0.0008    37    38    39     2
    39   -1.8559    0.0000    8.9547    0.0582  -30.4104  180.0000    0.0008    38    39    40     2
    40   -1.9061    0.0000    8.9253    0.0582  -30.4104  180.0000    0.0008    39    40    41     2
    41   -1.9562    0.0000    8.8958    0.0582  -30.4104  180.0000    0.0008    40    41    42     2
    42   -2.0064    0.0000    8.8664    0.0582  -30.4104  180.0000    0.0008    41    42    43     2
    43   -2.0566    0.0000    8.8369    0.0582  -30.4104  180.0000    0.0008    42    43    44     2
    44   -2.1067    0.0000    8.8075    0.0582  -30.4104  180.0000    0.0008    43    44    45     2
    45   -2.1569    0.0000    8.7781    0.0582  -30.4104  180.0000    0.0008    44    45    46     2
    46   -2.2071    0.0000    8.7486    0.0582  -30.4104  180.0000    0.0008    45    46    47     2
    47   -2.2572    0.0000    8.7192    0.0582  -30.4104  180.0000    0.0008    46    47    48     2
    48   -2.3074    0.0000    8.6897    0.0582  -30.4104  180.0000    0.0008    47    48    49     2
    49   -2.3575    0.0000    8.6603    0.0582  -30.4104  180.0000    0.0008    48    49    50     2
    50   -2.4077    0.0000    8.6308    0.0582  -30.4104  180.0000    0.0008    49    50    51     2
    51   -2.4579    0.0000    8.6014    0.0582  -30.4104  180.0000    0.0008    50    51    52     2
    52   -2.5080    0.0000    8.5719    0.0582  -30.4104  180.0000    0.0008    51    52    53     2
    53   -2.5582    0.0000    8.5425    0.0582  -30.4104  180.0000    0.0008    52    53    54     2
    54   -2.6084    0.0000    8.5131    0.0582  -30.4104  180.0000    0.0008    53    54    55     2
    55   -2.6585    0.0000    8.4836    0.0582  -30.4104  180.0000    0.0008    54    55    56     2
    56   -2.7087    0.0000    8.4542    0.0582  -30.4104  180.0000    0.0008    55    56    57     2
    57   -2.7589    0.0000    8.4247    0.0582  -30.4104  180.0000    0.0008    56    57    58     2
    58   -2.8090    0.0000    8.3953    0.0582  -30.4104  180.0000    0.0008    57    58    59     2
    59   -2.8592    0.0000    8.3658    0.0582  -30.4104  180.0000    0.0008    58    59    60     2
    60   -2.9094    0.0000    8.3364    0.0582  -30.4104  180.0000    0.0008    59    60    61     2
    61   -2.9595    0.0000    8.3069    0.0582  -30.4104  180.0000    0.0008    60    61    62     2
    62   -3.0097    0.0000    8.2775    0.0582  -30.4104  180.0000    0.0008    61    62    63     2
    63   -3.0599    0.0000    8.2481    0.0582  -30.4104  180.0000    0.0008    62    63    64     2
    64   -3.1100    0.0000    8.2186    0.0582  -30.4104  180.0000    0.0008    63    64    65     2
    65   -3.1602    0.0000    8.1892    0.0582  -30.4104  180.0000    0.0008    64    65    66     2
    66   -3.2104    0.0000    8.1597    0.0582  -30.4104  180.0000    0.0008    65    66    67     2
    67   -3.2605    0.0000    8.1303    0.0582  -30.4104  180.0000    0.0008    66    67    68     2
    68   -3.3107    0.0000    8.1008    0.0582  -30.4104  180.0000    0.0008    67    68    69     2
    69   -3.3609    0.0000    8.0714    0.0582  -30.4104  180.0000    0.0008    68    69    70     2
    70   -3.4110    0.0000    8.0419    0.0582  -30.4104  180.0000    0.0008    69    70    71     2
    71   -3.4612    0.0000    8.0125    0.0582  -30.4104  180.0000    0.0008    70    71    72     2
    72   -3.5114    0.0000    7.9831    0.0582  -30.4104  180.0000    0.0008    71    72    73     2
    73   -3.5615    0.0000    7.9536    0.0582  -30.4104  180.0000    0.0008    72    73    74     2
    74   -3.6117    0.0000    7.9242    0.0582  -30.4104  180.0000    0.0008    73    74    75     2
    75   -3.6619    0.0000    7.8947    0.0582  -30.4104  180.0000    0.0008    74    75    76     2
    76   -3.7120    0.0000    7.8653    0.0582  -30.4104  180.0000    0.0008    75    76    77     2
    77   -3.7622    0.0000    7.8358    0.0582  -30.4104  180.0000    0.0008    76    77    78     2
    78   -3.8124    0.0000    7.8064    0.0582  -30.4104  180.0000    0.0008    77    78    79     2
    79   -3.8625    0.0000    7.7769    0.0582  -30.4104  180.0000    0.0008    78    79    80     2
    80   -3.9127    0.0000    7.7475    0.0582  -30.4104  180.0000    0.0008    79    80    81     2
    81   -3.9629    0.0000    7.7181    0.0582  -30.4104  180.0000    0.0008    80    81    82     2
    82   -4.0130    0.0000    7.6886    0.0582  -30.4104  180.0000    0.0008    81    82    83     2
    83   -4.0632    0.0000    7.6592    0.0582  -30.4104  180.0000    0.0008    82    83    84     2
    84   -4.1134    0.0000    7.6297    0.0582  -30.4104  180.0000    0.0008    83    84    85     2
    85   -4.1635    0.0000    7.6003    0.0582  -30.4104  180.0000    0.0008    84    85    86     2
    86   -4.2137    0.0000    7.5708    0.0582  -30.4104  180.0000    0.0008    85    86    87     2
    87   -4.2639    0.0000    7.5414    0.0582  -30.4104  180.0000    0.0008    86    87    88     2
    88   -4.3140    0.0000    7.5119    0.0582  -30.4104  180.0000    0.0008    87    88    89     2
    89   -4.3642    0.0000    7.4825    0.0582  -30.4104  180.0000    0.0008    88    89    90     2
    90   -4.4143    0.0000    7.4531    0.0582  -30.4104  180.0000    0.0008    89    90    91     2
    91   -4.4645    0.0000    7.4236    0.0582  -30.4104  180.0000    0.0008    90    91    92     2
    92   -4.5147    0.0000    7.3942    0.0582  -30.4104  180.0000    0.0008    91    92    93     2
    93   -4.5648    0.0000    7.3647    0.0582  -30.4104  180.0000    0.0008    92    93     0     2
    94    0.1001    0.0000    9.9853    0.0582  -30.4104    0.0000    0.0008     3    94    95     3
    95    0.1502    0.0000    9.9558    0.0582  -30.4104    0.0000    0.0008    94    95    96     3
    96    0.2004    0.0000    9.9264    0.0582  -30.4104    0.0000    0.0008    95    96    97     3
    97    0.2506    0.0000    9.8969    0.0582  -30.4104    0.0000    0.0008    96    97    98     3
    98    0.3007    0.0000    9.8675    0.0582  -30.4104    0.0000    0.0008    97    98    99     3
    99    0.3509    0.0000    9.8381    0.0582  -30.4104    0.0000    0.0008    98    99   100     3
   100    0.4011    0.0000    9.8086    0.0582  -30.4104    0.0000    0.0008    99   100   101     3
   101    0.4512    0.0000    9.7792    0.0582  -30.4104    0.0000    0.0008   100   101   102     3
   102    0.5014    0.0000    9.7497    0.0582  -30.4104    0.0000    0.0008   101   102   103     3
   103    0.5516    0.0000    9.7203    0.0582  -30.4104    0.0000    0.0008   102   103   104     3
   104    0.6017    0.0000    9.6908    0.0582  -30.4104    0.0000    0.0008   103   104   105     3
   105    0.6519    0.0000    9.6614    0.0582  -30.4104    0.0000    0.0008   104   105   106     3
   106    0.7021    0.0000    9.6319    0.0582  -30.4104    0.0000    0.0008   105   106   107     3
   107    0.7522    0.0000    9.6025    0.0582  -30.4104    0.0000    0.0008   106   107   108     3
   108    0.8024    0.0000    9.5731    0.0582  -30.4104    0.0000    0.0008   107   108   109     3
   109    0.8526    0.0000    9.5436    0.0582  -30.4104    0.0000    0.0008   108   109   110     3
   110    0.9027    0.0000    9.5142    0.0582  -30.4104    0.0000    0.0008   109   110   111     3
   111    0.9529    0.0000    9.4847    0.0582  -30.4104    0.0000    0.0008   110   111   112     3
   112    1.0031    0.0000    9.4553    0.0582  -30.4104    0.0000    0.0008   111   112   113     3
   113    1.0532    0.0000    9.4258    0.0582  -30.4104    0.0000    0.0008   112   113   114     3
   114    1.1034    0.0000    9.3964    0.0582  -30.4104    0.0000    0.0008   113   114   115     3
   115    1.1536    0.0000    9.3669    0.0582  -30.4104    0.0000    0.0008   114   115   116     3
   116    1.2037    0.0000    9.3375    0.0582  -30.4104    0.0000    0.0008   115   116   117     3
   117    1.2539    0.0000    9.3081    0.0582  -30.4104    0.0000    0.0008   116   117   118     3
   118    1.3041    0.0000    9.2786    0.0582  -30.4104    0.0000    0.0008   117   118   119     3
   119    1.3542    0.0000    9.2492    0.0582  -30.4104    0.0000    0.0008   118   119   120     3
   120    1.4044    0.0000    9.2197    0.0582  -30.4104    0.0000    0.0008   119   120   121     3
   121    1.4546    0.0000    9.1903    0.0582  -30.4104    0.0000    0.0008   120   121   122     3
   122    1.5047    0.0000    9.1608    0.0582  -30.4104    0.0000    0.0008   121   122   123     3
   123    1.5549    0.0000    9.1314    0.0582  -30.4104    0.0000    0.0008   122   123   124     3
   124    1.6051    0.0000    9.1019    0.0582  -30.4104    0.0000    0.0008   123   124   125     3
   125    1.6552    0.0000    9.0725    0.0582  -30.4104    0.0000    0.0008   124   125   126     3
   126    1.7054    0.0000    9.0431    0.0582  -30.4104    0.0000    0.0008   125   126   127     3
   127    1.7556    0.0000    9.0136    0.0582  -30.4104    0.0000    0.0008   126   127   128     3
   128    1.8057    0.0000    8.9842    0.0582  -30.4104    0.0000    0.0008   127   128   129     3
   129    1.8559    0.0000    8.9547    0.0582  -30.4104    0.0000    0.0008   128   129   130     3
   130    1.9061    0.0000    8.9253    0.0582  -30.4104    0.0000    0.0008   129   130   131     3
   131    1.9562    0.0000    8.8958    0.0582  -30.4104    0.0000    0.0008   130   131   132     3
   132    2.0064    0.0000    8.8664    0.0582  -30.4104    0.0000    0.0008   131   132   133     3
   133    2.0566    0.0000    8.8369    0.0582  -30.4104    0.0000    0.0008   132   133   134     3
   134    2.1067    0.0000    8.8075    0.0582  -30.4104    0.0000    0.0008   133   134   135     3
   135    2.1569    0.0000    8.7781    0.0582  -30.4104    0.0000    0.0008   134   135   136     3
   136    2.2071    0.0000    8.7486    0.0582  -30.4104    0.0000    0.0008   135   136   137     3
   137    2.2572    0.0000    8.7192    0.0582  -30.4104    0.0000    0.0008   136   137   138     3
   138    2.3074    0.0000    8.6897    0.0582  -30.4104    0.0000    0.0008   137   138   139     3
   139    2.3575    0.0000    8.6603    0.0582  -30.4104    0.0000    0.0008   138   139   140     3
   140    2.4077    0.0000    8.6308    0.0582  -30.4104    0.0000    0.0008   139   140   141     3
   141    2.4579    0.0000    8.6014    0.0582  -30.4104    0.0000    0.0008   140   141   142     3
   142    2.5080    0.0000    8.5719    0.0582  -30.4104    0.0000    0.0008   141   142   143     3
   143    2.5582    0.0000    8.5425    0.0582  -30.4104    0.0000    0.0008   142   143   144     3
   144    2.6084    0.0000    8.5131    0.0582  -30.4104    0.0000    0.0008   143   144   145     3
   145    2.6585    0.0000    8.4836    0.0582  -30.4104    0.0000    0.0008   144   145   146     3
   146    2.7087    0.0000    8.4542    0.0582  -30.4104    0.0000    0.0008   145   146   147     3
   147    2.7589    0.0000    8.4247    0.0582  -30.4104    0.0000    0.0008   146   147   148     3
   148    2.8090    0.0000    8.3953    0.0582  -30.4104    0.0000    0.0008   147   148   149     3
   149    2.8592    0.0000    8.3658    0.0582  -30.4104    0.0000    0.0008   148   149   150     3
   150    2.9094    0.0000    8.3364    0.0582  -30.4104    0.0000    0.0008   149   150   151     3
   151    2.9595    0.0000    8.3069    0.0582  -30.4104    0.0000    0.0008   150   151   152     3
   152    3.0097    0.0000    8.2775    0.0582  -30.4104    0.0000    0.0008   151   152   153     3
   153    3.0599    0.0000    8.2481    0.0582  -30.4104    0.0000    0.0008   152   153   154     3
   154    3.1100    0.0000    8.2186    0.0582  -30.4104    0.0000    0.0008   153   154   155     3
   155    3.1602    0.0000    8.1892    0.0582  -30.4104    0.0000    0.0008   154   155   156     3
   156    3.2104    0.0000    8.1597    0.0582  -30.4104    0.0000    0.0008   155   156   157     3
   157    3.2605    0.0000    8.1303    0.0582  -30.4104    0.0000    0.0008   156   157   158     3
   158    3.3107    0.0000    8.1008    0.0582  -30.4104    0.0000    0.0008   157   158   159     3
   159    3.3609    0.0000    8.0714    0.0582  -30.4104    0.0000    0.0008   158   159   160     3
   160    3.4110    0.0000    8.0419    0.0582  -30.4104    0.0000    0.0008   159   160   161     3
   161    3.4612    0.0000    8.0125    0.0582  -30.4104    0.0000    0.0008   160   161   162     3
   162    3.5114    0.0000    7.9831    0.0582  -30.4104    0.0000    0.0008   161   162   163     3
   163    3.5615    0.0000    7.9536    0.0582  -30.4104    0.0000    0.0008   162   163   164     3
   164    3.6117    0.0000    7.9242    0.0582  -30.4104    0.0000    0.0008   163   164   165     3
   165    3.6619    0.0000    7.8947    0.0582  -30.4104    0.0000    0.0008   164   165   166     3
   166    3.7120    0.0000    7.8653    0.0582  -30.4104    0.0000    0.0008   165   166   167     3
   167    3.7622    0.0000    7.8358    0.0582  -30.4104    0.0000    0.0008   166   167   168     3
   168    3.8124    0.0000    7.8064    0.0582  -30.4104    0.0000    0.0008   167   168   169     3
   169    3.8625    0.0000    7.7769    0.0582  -30.4104    0.0000    0.0008   168   169   170     3
   170    3.9127    0.0000    7.7475    0.0582  -30.4104    0.0000    0.0008   169   170   171     3
   171    3.9629    0.0000    7.7181    0.0582  -30.4104    0.0000    0.0008   170   171   172     3
   172    4.0130    0.0000    7.6886    0.0582  -30.4104    0.0000    0.0008   171   172   173     3
   173    4.0632    0.0000    7.6592    0.0582  -30.4104    0.0000    0.0008   172   173   174     3
   174    4.1134    0.0000    7.6297    0.0582  -30.4104    0.0000    0.0008   173   174   175     3
   175    4.1635    0.0000    7.6003    0.0582  -30.4104    0.0000    0.0008   174   175   176     3
   176    4.2137    0.0000    7.5708    0.0582  -30.4104    0.0000    0.0008   175   176   177     3
   177    4.2639    0.0000    7.5414    0.0582  -30.4104    0.0000    0.0008   176   177   178     3
   178    4.3140    0.0000    7.5119    0.0582  -30.4104    0.0000    0.0008   177   178   179     3
   179    4.3642    0.0000    7.4825    0.0582  -30.4104    0.0000    0.0008   178   179   180     3
   180    4.4143    0.0000    7.4531    0.0582  -30.4104    0.0000    0.0008   179   180   181     3
   181    4.4645    0.0000    7.4236    0.0582  -30.4104    0.0000    0.0008   180   181   182     3
   182    4.5147    0.0000    7.3942    0.0582  -30.4104    0.0000    0.0008   181   182   183     3
   183    4.5648    0.0000    7.3647    0.0582  -30.4104    0.0000    0.0008   182   183     0     3



  DATA CARD No:   1 EK   1     0     0     0  0.00000E+00  0.00000E+00  0.00000E+00  0.00000E+00  0.00000E+00  0.00000E+00
  DATA CARD No:   2 EX   0     1     1     0  1.00000E+00  0.00000E+00  0.00000E+00  0.00000E+00  0.00000E+00  0.00000E+00
  DATA CARD No:   3 GN   2     0     0     0  1.30000E+01  5.00000E-03  0.00000E+00  0.00000E+00  0.00000E+00  0.00000E+00
  DATA CARD No:   4 LD   5     0     0     0  3.77358E+07  0.00000E+00  0.00000E+00  0.00000E+00  0.00000E+00  0.00000E+00
  DATA CARD No:   5 FR   0    11     0     0  1.38000E+01  4.00000E-02  0.00000E+00  0.00000E+00  0.00000E+00  0.00000E+00
  DATA CARD No:   6 RP   0    19    73     0  0.00000E+00  0.00000E+00  5.00000E+00  5.00000E+00  0.00000E+00  0.00000E+00


                               --------- FREQUENCY --------
                                FREQUENCY : 1.3800E+01 MHz
                                WAVELENGTH: 2.1725E+01 Mtr

                        APPROXIMATE INTEGRATION EMPLOYED FOR SEGMENTS 
                        THAT ARE MORE THAN 1.000 WAVELENGTHS APART
                        THE EXTENDED THIN WIRE KERNEL WILL BE USED


                          ------ STRUCTURE IMPEDANCE LOADING ------
  LOCATION        RESISTANCE  INDUCTANCE  CAPACITANCE     IMPEDANCE (OHMS)   CONDUCTIVITY  CIRCUIT
  ITAG FROM THRU     OHMS       HENRYS      FARADS       REAL     IMAGINARY   MHOS/METER      TYPE
  ALL                                                                        3.7736E+07     WIRE  


                            -------- ANTENNA ENVIRONMENT --------
                            FINITE GROUND - SOMMERFELD SOLUTION
                            RELATIVE DIELECTRIC CONST: 13.000
                            CONDUCTIVITY:  5.000E-03 MHOS/METER
                            COMPLEX DIELECTRIC CONSTANT:  1.3000E+01-6.5130E+00j


                             ---------- MATRIX TIMING ----------
                               FILL: 40 msec  FACTOR: 10 msec


                        --------- ANTENNA INPUT PARAMETERS ---------
  TAG   SEG       VOLTAGE (VOLTS)         CURRENT (AMPS)         IMPEDANCE (OHMS)        ADMITTANCE (MHOS)     POWER
  No:   No:     REAL      IMAGINARY     REAL      IMAGINARY     REAL      IMAGINARY    REAL       IMAGINARY   (WATTS)
    1     1  1.0000E+00  0.0000E+00  1.5333E-02  2.2766E-03  6.3812E+01 -9.4744E+00  1.5333E-02  2.2766E-03  7.6665E-03


                           -------- CURRENTS AND LOCATION --------
                                  DISTANCES IN WAVELENGTHS

   SEG  TAG    COORDINATES OF SEGM CENTER     SEGM    ------------- CURRENT (AMPS) -------------
   No:  No:       X         Y         Z      LENGTH     REAL      IMAGINARY    MAGN        PHASE
     1    1   -0.0023    0.0000    0.4603   0.00230  1.5333E-02  2.2766E-03  1.5501E-02    8.445
     2    1   -0.0000    0.0000    0.4603   0.00230  1.5335E-02  2.2550E-03  1.5500E-02    8.366
     3    1    0.0023    0.0000    0.4603   0.00230  1.5333E-02  2.2311E-03  1.5495E-02    8.279
     4    2   -0.0046    0.0000    0.4596   0.00268 -1.5328E-02 -2.2526E-03  1.5492E-02 -171.640
     5    2   -0.0069    0.0000    0.4583   0.00268 -1.5318E-02 -2.2246E-03  1.5479E-02 -171.737
     6    2   -0.0092    0.0000    0.4569   0.00268 -1.5304E-02 -2.1990E-03  1.5461E-02 -171.823
     7    2   -0.0115    0.0000    0.4556   0.00268 -1.5286E-02 -2.1746E-03  1.5440E-02 -171.903
     8    2   -0.0138    0.0000    0.4542   0.00268 -1.5264E-02 -2.1508E-03  1.5414E-02 -171.979
     9    2   -0.0162    0.0000    0.4529   0.00268 -1.5237E-02 -2.1273E-03  1.5385E-02 -172.052
    10    2   -0.0185    0.0000    0.4515   0.00268 -1.5206E-02 -2.1040E-03  1.5351E-02 -172.122
    11    2   -0.0208    0.0000    0.4501   0.00268 -1.5171E-02 -2.0808E-03  1.5313E-02 -172.190
    12    2   -0.0231    0.0000    0.4488   0.00268 -1.5132E-02 -2.0577E-03  1.5271E-02 -172.256
    13    2   -0.0254    0.0000    0.4474   0.00268 -1.5089E-02 -2.0346E-03  1.5225E-02 -172.320
    14    2   -0.0277    0.0000    0.4461   0.00268 -1.5041E-02 -2.0115E-03  1.5175E-02 -172.383
    15    2   -0.0300    0.0000    0.4447   0.00268 -1.4989E-02 -1.9883E-03  1.5121E-02 -172.444
    16    2   -0.0323    0.0000    0.4434   0.00268 -1.4933E-02 -1.9651E-03  1.5062E-02 -172.504
    17    2   -0.0346    0.0000    0.4420   0.00268 -1.4873E-02 -1.9418E-03  1.5000E-02 -172.562
    18    2   -0.0369    0.0000    0.4407   0.00268 -1.4809E-02 -1.9183E-03  1.4933E-02 -172.619
    19    2   -0.0392    0.0000    0.4393   0.00268 -1.4741E-02 -1.8948E-03  1.4862E-02 -172.675
    20    2   -0.0416    0.0000    0.4379   0.00268 -1.4669E-02 -1.8712E-03  1.4788E-02 -172.730
    21    2   -0.0439    0.0000    0.4366   0.00268 -1.4592E-02 -1.8475E-03  1.4709E-02 -172.784
    22    2   -0.0462    0.0000    0.4352   0.00268 -1.4512E-02 -1.8236E-03  1.4626E-02 -172.838
    23    2   -0.0485    0.0000    0.4339   0.00268 -1.4427E-02 -1.7996E-03  1.4539E-02 -172.890
    24    2   -0.0508    0.0000    0.4325   0.00268 -1.4339E-02 -1.7755E-03  1.4448E-02 -172.941
    25    2   -0.0531    0.0000    0.4312   0.00268 -1.4246E-02 -1.7513E-03  1.4353E-02 -172.992
    26    2   -0.0554    0.0000    0.4298   0.00268 -1.4150E-02 -1.7269E-03  1.4255E-02 -173.042
    27    2   -0.0577    0.0000    0.4285   0.00268 -1.4049E-02 -1.7024E-03  1.4152E-02 -173.091
    28    2   -0.0600    0.0000    0.4271   0.00268 -1.3945E-02 -1.6778E-03  1.4045E-02 -173.139
    29    2   -0.0623    0.0000    0.4257   0.00268 -1.3836E-02 -1.6531E-03  1.3935E-02 -173.187
    30    2   -0.0646    0.0000    0.4244   0.00268 -1.3724E-02 -1.6283E-03  1.3820E-02 -173.234
    31    2   -0.0670    0.0000    0.4230   0.00268 -1.3608E-02 -1.6034E-03  1.3702E-02 -173.280
    32    2   -0.0693    0.0000    0.4217   0.00268 -1.3488E-02 -1.5783E-03  1.3580E-02 -173.326
    33    2   -0.0716    0.0000    0.4203   0.00268 -1.3364E-02 -1.5531E-03  1.3454E-02 -173.371
    34    2   -0.0739    0.0000    0.4190   0.00268 -1.3236E-02 -1.5279E-03  1.3324E-02 -173.416
    35    2   -0.0762    0.0000    0.4176   0.00268 -1.3105E-02 -1.5025E-03  1.3191E-02 -173.460
    36    2   -0.0785    0.0000    0.4163   0.00268 -1.2970E-02 -1.4770E-03  1.3054E-02 -173.503
    37    2   -0.0808    0.0000    0.4149   0.00268 -1.2831E-02 -1.4515E-03  1.2913E-02 -173.546
    38    2   -0.0831    0.0000    0.4135   0.00268 -1.2689E-02 -1.4259E-03  1.2769E-02 -173.589
    39    2   -0.0854    0.0000    0.4122   0.00268 -1.2543E-02 -1.4001E-03  1.2621E-02 -173.631
    40    2   -0.0877    0.0000    0.4108   0.00268 -1.2393E-02 -1.3743E-03  1.2469E-02 -173.672
    41    2   -0.0900    0.0000    0.4095   0.00268 -1.2240E-02 -1.3485E-03  1.2314E-02 -173.713
    42    2   -0.0924    0.0000    0.4081   0.00268 -1.2083E-02 -1.3225E-03  1.2156E-02 -173.754
    43    2   -0.0947    0.0000    0.4068   0.00268 -1.1923E-02 -1.2965E-03  1.1994E-02 -173.794
    44    2   -0.0970    0.0000    0.4054   0.00268 -1.1760E-02 -1.2705E-03  1.1828E-02 -173.834
    45    2   -0.0993    0.0000    0.4041   0.00268 -1.1593E-02 -1.2443E-03  1.1659E-02 -173.873
    46    2   -0.1016    0.0000    0.4027   0.00268 -1.1422E-02 -1.2182E-03  1.1487E-02 -173.912
    47    2   -0.1039    0.0000    0.4013   0.00268 -1.1248E-02 -1.1920E-03  1.1311E-02 -173.951
    48    2   -0.1062    0.0000    0.4000   0.00268 -1.1071E-02 -1.1657E-03  1.1133E-02 -173.989
    49    2   -0.1085    0.0000    0.3986   0.00268 -1.0891E-02 -1.1395E-03  1.0951E-02 -174.027
    50    2   -0.1108    0.0000    0.3973   0.00268 -1.0708E-02 -1.1132E-03  1.0765E-02 -174.065
    51    2   -0.1131    0.0000    0.3959   0.00268 -1.0521E-02 -1.0868E-03  1.0577E-02 -174.102
    52    2   -0.1154    0.0000    0.3946   0.00268 -1.0331E-02 -1.0605E-03  1.0386E-02 -174.139
    53    2   -0.1178    0.0000    0.3932   0.00268 -1.0138E-02 -1.0342E-03  1.0191E-02 -174.176
    54    2   -0.1201    0.0000    0.3919   0.00268 -9.9424E-03 -1.0078E-03  9.9934E-03 -174.212
    55    2   -0.1224    0.0000    0.3905   0.00268 -9.7435E-03 -9.8144E-04  9.7928E-03 -174.248
    56    2   -0.1247    0.0000    0.3892   0.00268 -9.5416E-03 -9.5510E-04  9.5893E-03 -174.284
    57    2   -0.1270    0.0000    0.3878   0.00268 -9.3368E-03 -9.2876E-04  9.3829E-03 -174.319
    58    2   -0.1293    0.0000    0.3864   0.00268 -9.1292E-03 -9.0244E-04  9.1737E-03 -174.355
    59    2   -0.1316    0.0000    0.3851   0.00268 -8.9187E-03 -8.7614E-04  8.9616E-03 -174.389
    60    2   -0.1339    0.0000    0.3837   0.00268 -8.7054E-03 -8.4987E-04  8.7468E-03 -174.424
    61    2   -0.1362    0.0000    0.3824   0.00268 -8.4893E-03 -8.2363E-04  8.5292E-03 -174.459
    62    2   -0.1385    0.0000    0.3810   0.00268 -8.2706E-03 -7.9743E-04  8.3090E-03 -174.493
    63    2   -0.1408    0.0000    0.3797   0.00268 -8.0492E-03 -7.7127E-04  8.0861E-03 -174.527
    64    2   -0.1432    0.0000    0.3783   0.00268 -7.8252E-03 -7.4516E-04  7.8606E-03 -174.560
    65    2   -0.1455    0.0000    0.3770   0.00268 -7.5986E-03 -7.1910E-04  7.6326E-03 -174.594
    66    2   -0.1478    0.0000    0.3756   0.00268 -7.3695E-03 -6.9310E-04  7.4020E-03 -174.627
    67    2   -0.1501    0.0000    0.3742   0.00268 -7.1379E-03 -6.6716E-04  7.1690E-03 -174.660
    68    2   -0.1524    0.0000    0.3729   0.00268 -6.9038E-03 -6.4129E-04  6.9335E-03 -174.693
    69    2   -0.1547    0.0000    0.3715   0.00268 -6.6673E-03 -6.1548E-04  6.6956E-03 -174.726
    70    2   -0.1570    0.0000    0.3702   0.00268 -6.4284E-03 -5.8976E-04  6.4554E-03 -174.758
    71    2   -0.1593    0.0000    0.3688   0.00268 -6.1871E-03 -5.6411E-04  6.2128E-03 -174.791
    72    2   -0.1616    0.0000    0.3675   0.00268 -5.9436E-03 -5.3854E-04  5.9679E-03 -174.823
    73    2   -0.1639    0.0000    0.3661   0.00268 -5.6977E-03 -5.1306E-04  5.7208E-03 -174.855
    74    2   -0.1662    0.0000    0.3648   0.00268 -5.4496E-03 -4.8767E-04  5.4713E-03 -174.886
    75    2   -0.1686    0.0000    0.3634   0.00268 -5.1992E-03 -4.6237E-04  5.2197E-03 -174.918
    76    2   -0.1709    0.0000    0.3620   0.00268 -4.9465E-03 -4.3717E-04  4.9658E-03 -174.949
    77    2   -0.1732    0.0000    0.3607   0.00268 -4.6917E-03 -4.1206E-04  4.7097E-03 -174.981
    78    2   -0.1755    0.0000    0.3593   0.00268 -4.4346E-03 -3.8705E-04  4.4514E-03 -175.012
    79    2   -0.1778    0.0000    0.3580   0.00268 -4.1752E-03 -3.6214E-04  4.1909E-03 -175.043
    80    2   -0.1801    0.0000    0.3566   0.00268 -3.9136E-03 -3.3732E-04  3.9281E-03 -175.074
    81    2   -0.1824    0.0000    0.3553   0.00268 -3.6497E-03 -3.1261E-04  3.6631E-03 -175.104
    82    2   -0.1847    0.0000    0.3539   0.00268 -3.3835E-03 -2.8798E-04  3.3957E-03 -175.135
    83    2   -0.1870    0.0000    0.3526   0.00268 -3.1148E-03 -2.6344E-04  3.1260E-03 -175.166
    84    2   -0.1893    0.0000    0.3512   0.00268 -2.8437E-03 -2.3899E-04  2.8537E-03 -175.196
    85    2   -0.1916    0.0000    0.3498   0.00268 -2.5698E-03 -2.1460E-04  2.5787E-03 -175.226
    86    2   -0.1940    0.0000    0.3485   0.00268 -2.2930E-03 -1.9027E-04  2.3009E-03 -175.256
    87    2   -0.1963    0.0000    0.3471   0.00268 -2.0131E-03 -1.6598E-04  2.0199E-03 -175.287
    88    2   -0.1986    0.0000    0.3458   0.00268 -1.7295E-03 -1.4169E-04  1.7353E-03 -175.317
    89    2   -0.2009    0.0000    0.3444   0.00268 -1.4417E-03 -1.1735E-04  1.4465E-03 -175.347
    90    2   -0.2032    0.0000    0.3431   0.00268 -1.1487E-03 -9.2896E-05  1.1524E-03 -175.376
    91    2   -0.2055    0.0000    0.3417   0.00268 -8.4865E-04 -6.8186E-05  8.5139E-04 -175.406
    92    2   -0.2078    0.0000    0.3404   0.00268 -5.3795E-04 -4.2940E-05  5.3966E-04 -175.436
    93    2   -0.2101    0.0000    0.3390   0.00268 -2.0090E-04 -1.5932E-05  2.0153E-04 -175.466
    94    3    0.0046    0.0000    0.4596   0.00268  1.5328E-02  2.2079E-03  1.5486E-02    8.197
    95    3    0.0069    0.0000    0.4583   0.00268  1.5318E-02  2.1839E-03  1.5473E-02    8.114
    96    3    0.0092    0.0000    0.4569   0.00268  1.5304E-02  2.1605E-03  1.5456E-02    8.036
    97    3    0.0115    0.0000    0.4556   0.00268  1.5286E-02  2.1375E-03  1.5435E-02    7.960
    98    3    0.0138    0.0000    0.4542   0.00268  1.5263E-02  2.1148E-03  1.5409E-02    7.888
    99    3    0.0162    0.0000    0.4529   0.00268  1.5237E-02  2.0921E-03  1.5380E-02    7.818
   100    3    0.0185    0.0000    0.4515   0.00268  1.5206E-02  2.0695E-03  1.5346E-02    7.750
   101    3    0.0208    0.0000    0.4501   0.00268  1.5171E-02  2.0470E-03  1.5308E-02    7.684
   102    3    0.0231    0.0000    0.4488   0.00268  1.5132E-02  2.0244E-03  1.5267E-02    7.620
   103    3    0.0254    0.0000    0.4474   0.00268  1.5088E-02  2.0018E-03  1.5221E-02    7.557
   104    3    0.0277    0.0000    0.4461   0.00268  1.5041E-02  1.9791E-03  1.5171E-02    7.496
   105    3    0.0300    0.0000    0.4447   0.00268  1.4989E-02  1.9563E-03  1.5116E-02    7.436
   106    3    0.0323    0.0000    0.4434   0.00268  1.4933E-02  1.9335E-03  1.5058E-02    7.377
   107    3    0.0346    0.0000    0.4420   0.00268  1.4873E-02  1.9105E-03  1.4995E-02    7.320
   108    3    0.0369    0.0000    0.4407   0.00268  1.4809E-02  1.8874E-03  1.4929E-02    7.263
   109    3    0.0392    0.0000    0.4393   0.00268  1.4741E-02  1.8642E-03  1.4858E-02    7.208
   110    3    0.0416    0.0000    0.4379   0.00268  1.4669E-02  1.8409E-03  1.4784E-02    7.153
   111    3    0.0439    0.0000    0.4366   0.00268  1.4592E-02  1.8175E-03  1.4705E-02    7.100
   112    3    0.0462    0.0000    0.4352   0.00268  1.4512E-02  1.7939E-03  1.4622E-02    7.047
   113    3    0.0485    0.0000    0.4339   0.00268  1.4427E-02  1.7703E-03  1.4535E-02    6.995
   114    3    0.0508    0.0000    0.4325   0.00268  1.4338E-02  1.7465E-03  1.4444E-02    6.945
   115    3    0.0531    0.0000    0.4312   0.00268  1.4246E-02  1.7225E-03  1.4350E-02    6.894
   116    3    0.0554    0.0000    0.4298   0.00268  1.4149E-02  1.6985E-03  1.4251E-02    6.845
   117    3    0.0577    0.0000    0.4285   0.00268  1.4049E-02  1.6743E-03  1.4148E-02    6.796
   118    3    0.0600    0.0000    0.4271   0.00268  1.3944E-02  1.6500E-03  1.4042E-02    6.748
   119    3    0.0623    0.0000    0.4257   0.00268  1.3836E-02  1.6256E-03  1.3931E-02    6.701
   120    3    0.0646    0.0000    0.4244   0.00268  1.3724E-02  1.6010E-03  1.3817E-02    6.654
   121    3    0.0670    0.0000    0.4230   0.00268  1.3608E-02  1.5764E-03  1.3699E-02    6.608
   122    3    0.0693    0.0000    0.4217   0.00268  1.3488E-02  1.5516E-03  1.3576E-02    6.563
   123    3    0.0716    0.0000    0.4203   0.00268  1.3364E-02  1.5268E-03  1.3451E-02    6.518
   124    3    0.0739    0.0000    0.4190   0.00268  1.3236E-02  1.5018E-03  1.3321E-02    6.473
   125    3    0.0762    0.0000    0.4176   0.00268  1.3105E-02  1.4768E-03  1.3188E-02    6.430
   126    3    0.0785    0.0000    0.4163   0.00268  1.2970E-02  1.4516E-03  1.3051E-02    6.386
   127    3    0.0808    0.0000    0.4149   0.00268  1.2831E-02  1.4264E-03  1.2910E-02    6.343
   128    3    0.0831    0.0000    0.4135   0.00268  1.2689E-02  1.4011E-03  1.2766E-02    6.301
   129    3    0.0854    0.0000    0.4122   0.00268  1.2543E-02  1.3757E-03  1.2618E-02    6.259
   130    3    0.0877    0.0000    0.4108   0.00268  1.2393E-02  1.3502E-03  1.2466E-02    6.218
   131    3    0.0900    0.0000    0.4095   0.00268  1.2240E-02  1.3247E-03  1.2311E-02    6.177
   132    3    0.0924    0.0000    0.4081   0.00268  1.2083E-02  1.2991E-03  1.2153E-02    6.136
   133    3    0.0947    0.0000    0.4068   0.00268  1.1923E-02  1.2734E-03  1.1991E-02    6.096
   134    3    0.0970    0.0000    0.4054   0.00268  1.1759E-02  1.2477E-03  1.1825E-02    6.057
   135    3    0.0993    0.0000    0.4041   0.00268  1.1592E-02  1.2220E-03  1.1657E-02    6.017
   136    3    0.1016    0.0000    0.4027   0.00268  1.1422E-02  1.1962E-03  1.1484E-02    5.979
   137    3    0.1039    0.0000    0.4013   0.00268  1.1248E-02  1.1703E-03  1.1309E-02    5.940
   138    3    0.1062    0.0000    0.4000   0.00268  1.1071E-02  1.1444E-03  1.1130E-02    5.902
   139    3    0.1085    0.0000    0.3986   0.00268  1.0891E-02  1.1185E-03  1.0948E-02    5.864
   140    3    0.1108    0.0000    0.3973   0.00268  1.0707E-02  1.0926E-03  1.0763E-02    5.826
   141    3    0.1131    0.0000    0.3959   0.00268  1.0521E-02  1.0667E-03  1.0575E-02    5.789
   142    3    0.1154    0.0000    0.3946   0.00268  1.0331E-02  1.0407E-03  1.0383E-02    5.752
   143    3    0.1178    0.0000    0.3932   0.00268  1.0138E-02  1.0148E-03  1.0189E-02    5.716
   144    3    0.1201    0.0000    0.3919   0.00268  9.9422E-03  9.8880E-04  9.9912E-03    5.680
   145    3    0.1224    0.0000    0.3905   0.00268  9.7432E-03  9.6284E-04  9.7907E-03    5.644
   146    3    0.1247    0.0000    0.3892   0.00268  9.5414E-03  9.3690E-04  9.5872E-03    5.608
   147    3    0.1270    0.0000    0.3878   0.00268  9.3366E-03  9.1097E-04  9.3809E-03    5.573
   148    3    0.1293    0.0000    0.3864   0.00268  9.1289E-03  8.8506E-04  9.1717E-03    5.538
   149    3    0.1316    0.0000    0.3851   0.00268  8.9184E-03  8.5917E-04  8.9597E-03    5.503
   150    3    0.1339    0.0000    0.3837   0.00268  8.7051E-03  8.3332E-04  8.7449E-03    5.468
   151    3    0.1362    0.0000    0.3824   0.00268  8.4891E-03  8.0751E-04  8.5274E-03    5.434
   152    3    0.1385    0.0000    0.3810   0.00268  8.2704E-03  7.8173E-04  8.3072E-03    5.400
   153    3    0.1408    0.0000    0.3797   0.00268  8.0490E-03  7.5600E-04  8.0844E-03    5.366
   154    3    0.1432    0.0000    0.3783   0.00268  7.8250E-03  7.3033E-04  7.8590E-03    5.332
   155    3    0.1455    0.0000    0.3770   0.00268  7.5984E-03  7.0471E-04  7.6310E-03    5.299
   156    3    0.1478    0.0000    0.3756   0.00268  7.3692E-03  6.7915E-04  7.4005E-03    5.266
   157    3    0.1501    0.0000    0.3742   0.00268  7.1376E-03  6.5366E-04  7.1675E-03    5.232
   158    3    0.1524    0.0000    0.3729   0.00268  6.9036E-03  6.2823E-04  6.9321E-03    5.200
   159    3    0.1547    0.0000    0.3715   0.00268  6.6671E-03  6.0289E-04  6.6943E-03    5.167
   160    3    0.1570    0.0000    0.3702   0.00268  6.4282E-03  5.7762E-04  6.4541E-03    5.135
   161    3    0.1593    0.0000    0.3688   0.00268  6.1869E-03  5.5243E-04  6.2115E-03    5.102
   162    3    0.1616    0.0000    0.3675   0.00268  5.9434E-03  5.2733E-04  5.9667E-03    5.070
   163    3    0.1639    0.0000    0.3661   0.00268  5.6975E-03  5.0232E-04  5.7196E-03    5.038
   164    3    0.1662    0.0000    0.3648   0.00268  5.4494E-03  4.7740E-04  5.4702E-03    5.007
   165    3    0.1686    0.0000    0.3634   0.00268  5.1990E-03  4.5258E-04  5.2186E-03    4.975
   166    3    0.1709    0.0000    0.3620   0.00268  4.9464E-03  4.2786E-04  4.9648E-03    4.944
   167    3    0.1732    0.0000    0.3607   0.00268  4.6915E-03  4.0323E-04  4.7088E-03    4.912
   168    3    0.1755    0.0000    0.3593   0.00268  4.4344E-03  3.7871E-04  4.4506E-03    4.881
   169    3    0.1778    0.0000    0.3580   0.00268  4.1751E-03  3.5429E-04  4.1901E-03    4.850
   170    3    0.1801    0.0000    0.3566   0.00268  3.9135E-03  3.2997E-04  3.9274E-03    4.820
   171    3    0.1824    0.0000    0.3553   0.00268  3.6496E-03  3.0575E-04  3.6624E-03    4.789
   172    3    0.1847    0.0000    0.3539   0.00268  3.3834E-03  2.8163E-04  3.3951E-03    4.758
   173    3    0.1870    0.0000    0.3526   0.00268  3.1147E-03  2.5760E-04  3.1254E-03    4.728
   174    3    0.1893    0.0000    0.3512   0.00268  2.8435E-03  2.3365E-04  2.8531E-03    4.697
   175    3    0.1916    0.0000    0.3498   0.00268  2.5697E-03  2.0978E-04  2.5782E-03    4.667
   176    3    0.1940    0.0000    0.3485   0.00268  2.2929E-03  1.8598E-04  2.3005E-03    4.637
   177    3    0.1963    0.0000    0.3471   0.00268  2.0130E-03  1.6221E-04  2.0195E-03    4.607
   178    3    0.1986    0.0000    0.3458   0.00268  1.7295E-03  1.3845E-04  1.7350E-03    4.577
   179    3    0.2009    0.0000    0.3444   0.00268  1.4417E-03  1.1465E-04  1.4462E-03    4.547
   180    3    0.2032    0.0000    0.3431   0.00268  1.1486E-03  9.0746E-05  1.1522E-03    4.517
   181    3    0.2055    0.0000    0.3417   0.00268  8.4862E-04  6.6598E-05  8.5123E-04    4.487
   182    3    0.2078    0.0000    0.3404   0.00268  5.3792E-04  4.1933E-05  5.3956E-04    4.457
   183    3    0.2101    0.0000    0.3390   0.00268  2.0090E-04  1.5557E-05  2.0150E-04    4.428


                               ---------- POWER BUDGET ---------
                               INPUT POWER   =  7.6665E-03 Watts
                               RADIATED POWER=  7.5006E-03 Watts
                               STRUCTURE LOSS=  1.6596E-04 Watts
                               NETWORK LOSS  =  0.0000E+00 Watts
                               EFFICIENCY    =   97.84 Percent


                             ---------- RADIATION PATTERNS -----------

 ---- ANGLES -----     ----- POWER GAINS -----       ---- POLARIZATION ----   ---- E(THETA) ----    ----- E(PHI) ------
  THETA      PHI       MAJOR    MINOR    TOTAL       AXIAL      TILT  SENSE   MAGNITUDE    PHASE    MAGNITUDE     PHASE
 DEGREES   DEGREES        DB       DB       DB       RATIO   DEGREES            VOLTS/M   DEGREES     VOLTS/M   DEGREES
    0.00      0.00     -0.73  -999.99    -0.73      0.0000      0.00 LINEAR  6.2310E-01     29.80  0.0000E+00      0.00
    5.00      0.00     -0.68  -999.99    -0.68      0.0000      0.00 LINEAR  6.2708E-01     29.45  0.0000E+00      0.00
   10.00      0.00     -0.52  -999.99    -0.52      0.0000      0.00 LINEAR  6.3833E-01     28.46  0.0000E+00      0.00
   15.00      0.00     -0.30  -999.99    -0.30      0.0000      0.00 LINEAR  6.5515E-01     26.96  0.0000E+00      0.00
   20.00      0.00     -0.04  -999.99    -0.04      0.0000      0.00 LINEAR  6.7478E-01     25.12  0.0000E+00      0.00
   25.00      0.00      0.20  -999.99     0.20      0.0000      0.00 LINEAR  6.9351E-01     23.08  0.0000E+00      0.00
   30.00      0.00      0.36  -999.99     0.36      0.0000      0.00 LINEAR  7.0707E-01     20.98  0.0000E+00      0.00
   35.00      0.00      0.41  -999.99     0.41      0.0000      0.00 LINEAR  7.1117E-01     18.85  0.0000E+00      0.00
   40.00      0.00      0.30  -999.99     0.30      0.0000      0.00 LINEAR  7.0206E-01     16.73  0.0000E+00      0.00
   45.00      0.00     -0.01  -999.99    -0.01      0.0000      0.00 LINEAR  6.7722E-01     14.58  0.0000E+00      0.00
   50.00      0.00     -0.56  -999.99    -0.56      0.0000      0.00 LINEAR  6.3586E-01     12.35  0.0000E+00      0.00
   55.00      0.00     -1.37  -999.99    -1.37      0.0000      0.00 LINEAR  5.7916E-01      9.94  0.0000E+00      0.00
   60.00      0.00     -2.47  -999.99    -2.47      0.0000      0.00 LINEAR  5.1026E-01      7.26  0.0000E+00      0.00
   65.00      0.00     -3.88  -999.99    -3.88      0.0000      0.00 LINEAR  4.3375E-01      4.18  0.0000E+00      0.00
   70.00      0.00     -5.63  -999.99    -5.63      0.0000      0.00 LINEAR  3.5466E-01      0.63  0.0000E+00      0.00
   75.00      0.00     -7.78  -999.99    -7.78      0.0000      0.00 LINEAR  2.7679E-01     -3.38  0.0000E+00      0.00
   80.00      0.00    -10.60  -999.99   -10.60      0.0000      0.00 LINEAR  2.0020E-01     -7.64  0.0000E+00      0.00
   85.00      0.00    -15.27  -999.99   -15.27      0.0000      0.00 LINEAR  1.1681E-01    -11.81  0.0000E+00      0.00
   90.00      0.00   -999.99  -999.99  -999.99      0.0000      0.00         8.9050E-12    164.17  0.0000E+00      0.00
    0.00      5.00     -0.73  -175.84    -0.73      0.0000     -5.00 LINEAR  6.2073E-01     29.80  5.4306E-02   -150.20
    5.00      5.00     -0.68   -67.82    -0.68      0.0004     -5.04 LEFT    6.2470E-01     29.45  5.5060E-02   -150.84
   10.00      5.00     -0.52   -55.88    -0.52      0.0017     -5.15 LEFT    6.3593E-01     28.46  5.7318E-02   -152.64
   15.00      5.00     -0.29   -49.07    -0.29      0.0036     -5.34 LEFT    6.5273E-01     26.96  6.1070E-02   -155.29
   20.00      5.00     -0.03   -44.42    -0.03      0.0060     -5.62 LEFT    6.7233E-01     25.11  6.6240E-02   -158.43
   25.00      5.00      0.21   -41.04     0.21      0.0087     -5.98 LEFT    6.9106E-01     23.08  7.2640E-02   -161.70
   30.00      5.00      0.39   -38.52     0.39      0.0113     -6.44 LEFT    7.0466E-01     20.97  7.9931E-02   -164.83
   35.00      5.00      0.45   -36.70     0.45      0.0139     -7.00 LEFT    7.0882E-01     18.85  8.7613E-02   -167.69
   40.00      5.00      0.35   -35.51     0.35      0.0161     -7.68 LEFT    6.9981E-01     16.73  9.5031E-02   -170.20
   45.00      5.00      0.06   -34.97     0.06      0.0177     -8.48 LEFT    6.7513E-01     14.58  1.0140E-01   -172.35
   50.00      5.00     -0.47   -35.19    -0.46      0.0184     -9.42 LEFT    6.3395E-01     12.34  1.0586E-01   -174.15
   55.00      5.00     -1.25   -36.43    -1.25      0.0174    -10.50 LEFT    5.7747E-01      9.94  1.0749E-01   -175.62
   60.00      5.00     -2.31   -39.38    -2.31      0.0140    -11.68 LEFT    5.0880E-01      7.25  1.0547E-01   -176.79
   65.00      5.00     -3.68   -46.67    -3.68      0.0071    -12.90 LEFT    4.3253E-01      4.17  9.9104E-02   -177.69
   70.00      5.00     -5.39   -52.83    -5.39      0.0042    -13.97 RIGHT   3.5366E-01      0.62  8.7964E-02   -178.34
   75.00      5.00     -7.52   -41.61    -7.52      0.0197    -14.57 RIGHT   2.7601E-01     -3.39  7.1960E-02   -178.76
   80.00      5.00    -10.35   -39.06   -10.34      0.0367    -14.30 RIGHT   1.9963E-01     -7.66  5.1408E-02   -178.94
   85.00      5.00    -15.08   -41.21   -15.07      0.0494    -12.78 RIGHT   1.1648E-01    -11.84  2.7046E-02   -178.92
   90.00      5.00   -999.99  -999.99  -999.99      0.0000      0.00         8.8793E-12    164.13  1.6336E-12      1.31
    0.00     10.00     -0.73  -999.99    -0.73      0.0000    -10.00 LINEAR  6.1363E-01     29.80  1.0820E-01   -150.20
    5.00     10.00     -0.68   -61.94    -0.68      0.0009    -10.07 LEFT    6.1759E-01     29.45  1.0971E-01   -150.84
   10.00     10.00     -0.51   -50.00    -0.51      0.0034    -10.29 LEFT    6.2876E-01     28.46  1.1422E-01   -152.64
   15.00     10.00     -0.28   -43.19    -0.28      0.0071    -10.67 LEFT    6.4548E-01     26.95  1.2171E-01   -155.30
   20.00     10.00     -0.00   -38.56     0.00      0.0118    -11.21 LEFT    6.6502E-01     25.11  1.3205E-01   -158.43
   25.00     10.00      0.26   -35.19     0.26      0.0169    -11.92 LEFT    6.8374E-01     23.07  1.4485E-01   -161.70
   30.00     10.00      0.46   -32.70     0.47      0.0220    -12.82 LEFT    6.9740E-01     20.96  1.5943E-01   -164.84
   35.00     10.00      0.56   -30.90     0.56      0.0267    -13.91 LEFT    7.0175E-01     18.84  1.7481E-01   -167.70
   40.00     10.00      0.50   -29.75     0.50      0.0307    -15.21 LEFT    6.9306E-01     16.72  1.8967E-01   -170.21
   45.00     10.00      0.26   -29.26     0.26      0.0334    -16.74 LEFT    6.6883E-01     14.57  2.0245E-01   -172.35
   50.00     10.00     -0.20   -29.54    -0.20      0.0341    -18.51 LEFT    6.2822E-01     12.33  2.1141E-01   -174.15
   55.00     10.00     -0.90   -30.86    -0.90      0.0318    -20.50 LEFT    5.7238E-01      9.91  2.1473E-01   -175.62
   60.00     10.00     -1.87   -33.93    -1.87      0.0250    -22.64 LEFT    5.0441E-01      7.22  2.1075E-01   -176.80
   65.00     10.00     -3.14   -41.40    -3.14      0.0122    -24.78 LEFT    4.2884E-01      4.14  1.9808E-01   -177.70
   70.00     10.00     -4.75   -47.23    -4.75      0.0075    -26.63 RIGHT   3.5066E-01      0.58  1.7585E-01   -178.35
   75.00     10.00     -6.83   -36.27    -6.82      0.0337    -27.69 RIGHT   2.7365E-01     -3.45  1.4388E-01   -178.76
   80.00     10.00     -9.68   -33.73    -9.66      0.0627    -27.29 RIGHT   1.9791E-01     -7.73  1.0280E-01   -178.95
   85.00     10.00    -14.55   -35.76   -14.51      0.0870    -24.73 RIGHT   1.1546E-01    -11.92  5.4087E-02   -178.93
   90.00     10.00   -999.99  -999.99  -999.99      0.0000      0.00         8.8017E-12    164.06  3.2669E-12      1.31
    0.00     15.00     -0.73  -999.99    -0.73      0.0000    -15.00 LINEAR  6.0187E-01     29.80  1.6127E-01   -150.20
    5.00     15.00     -0.67   -58.65    -0.67      0.0013    -15.11 LEFT    6.0578E-01     29.45  1.6352E-01   -150.84
   10.00     15.00     -0.50   -46.71    -0.50      0.0049    -15.43 LEFT    6.1685E-01     28.45  1.7028E-01   -152.64
   15.00     15.00     -0.25   -39.91    -0.25      0.0104    -15.98 LEFT    6.3344E-01     26.95  1.8151E-01   -155.30
   20.00     15.00      0.05   -35.30     0.05      0.0171    -16.77 LEFT    6.5287E-01     25.10  1.9699E-01   -158.44
   25.00     15.00      0.34   -31.95     0.35      0.0243    -17.80 LEFT    6.7155E-01     23.06  2.1618E-01   -161.71
   30.00     15.00      0.58   -29.49     0.59      0.0313    -19.08 LEFT    6.8531E-01     20.95  2.3806E-01   -164.85
   35.00     15.00      0.73   -27.75     0.73      0.0377    -20.64 LEFT    6.8995E-01     18.82  2.6116E-01   -167.71
   40.00     15.00      0.73   -26.65     0.74      0.0427    -22.47 LEFT    6.8178E-01     16.70  2.8351E-01   -170.22
   45.00     15.00      0.57   -26.23     0.58      0.0457    -24.60 LEFT    6.5828E-01     14.54  3.0277E-01   -172.36
   50.00     15.00      0.20   -26.60     0.21      0.0457    -27.00 LEFT    6.1860E-01     12.30  3.1632E-01   -174.16
   55.00     15.00     -0.39   -28.05    -0.38      0.0414    -29.63 LEFT    5.6384E-01      9.88  3.2145E-01   -175.63
   60.00     15.00     -1.23   -31.26    -1.23      0.0315    -32.39 LEFT    4.9703E-01      7.18  3.1562E-01   -176.81
   65.00     15.00     -2.37   -39.00    -2.36      0.0147    -35.07 LEFT    4.2264E-01      4.08  2.9676E-01   -177.71
   70.00     15.00     -3.86   -44.26    -3.86      0.0095    -37.33 RIGHT   3.4560E-01      0.51  2.6354E-01   -178.36
   75.00     15.00     -5.87   -33.70    -5.86      0.0406    -38.63 RIGHT   2.6968E-01     -3.54  2.1568E-01   -178.77
   80.00     15.00     -8.74   -31.18    -8.72      0.0755    -38.24 RIGHT   1.9501E-01     -7.84  1.5413E-01   -178.96
   85.00     15.00    -13.77   -33.06   -13.72      0.1085    -35.25 RIGHT   1.1376E-01    -12.04  8.1106E-02   -178.94
   90.00     15.00   -999.99  -999.99  -999.99      0.0000      0.00         8.6712E-12    163.92  4.8991E-12      1.30
    0.00     20.00     -0.73  -168.57    -0.73      0.0000    -20.00 LINEAR  5.8552E-01     29.80  2.1311E-01   -150.20
    5.00     20.00     -0.67   -56.47    -0.67      0.0016    -20.14 LEFT    5.8938E-01     29.44  2.1611E-01   -150.84
   10.00     20.00     -0.49   -44.54    -0.49      0.0063    -20.55 LEFT    6.0030E-01     28.45  2.2509E-01   -152.64
   15.00     20.00     -0.21   -37.76    -0.21      0.0133    -21.26 LEFT    6.1668E-01     26.94  2.4003E-01   -155.30
   20.00     20.00      0.12   -33.17     0.12      0.0217    -22.26 LEFT    6.3593E-01     25.09  2.6064E-01   -158.45
   25.00     20.00      0.45   -29.85     0.45      0.0305    -23.57 LEFT    6.5452E-01     23.05  2.8619E-01   -161.72
   30.00     20.00      0.74   -27.44     0.75      0.0390    -25.19 LEFT    6.6840E-01     20.93  3.1537E-01   -164.86
   35.00     20.00      0.95   -25.75     0.96      0.0463    -27.12 LEFT    6.7341E-01     18.80  3.4620E-01   -167.72
   40.00     20.00      1.03   -24.72     1.05      0.0515    -29.36 LEFT    6.6592E-01     16.67  3.7610E-01   -170.23
   45.00     20.00      0.96   -24.39     0.98      0.0540    -31.91 LEFT    6.4341E-01     14.51  4.0193E-01   -172.37
   50.00     20.00      0.71   -24.87     0.72      0.0526    -34.72 LEFT    6.0501E-01     12.26  4.2020E-01   -174.17
   55.00     20.00      0.24   -26.44     0.25      0.0463    -37.72 LEFT    5.5176E-01      9.83  4.2729E-01   -175.65
   60.00     20.00     -0.47   -29.83    -0.47      0.0340    -40.78 LEFT    4.8657E-01      7.12  4.1979E-01   -176.82
   65.00     20.00     -1.48   -37.89    -1.48      0.0151    -43.66 LEFT    4.1384E-01      4.01  3.9491E-01   -177.72
   70.00     20.00     -2.87   -42.36    -2.87      0.0106    -46.03 RIGHT   3.3842E-01      0.41  3.5086E-01   -178.37
   75.00     20.00     -4.81   -32.26    -4.80      0.0424    -47.42 RIGHT   2.6405E-01     -3.66  2.8725E-01   -178.78
   80.00     20.00     -7.70   -29.79    -7.67      0.0786    -47.11 RIGHT   1.9090E-01     -7.99  2.0532E-01   -178.97
   85.00     20.00    -12.87   -31.56   -12.81      0.1163    -44.12 RIGHT   1.1135E-01    -12.22  1.0806E-01   -178.95
   90.00     20.00   -999.99  -999.99  -999.99      0.0000      0.00         8.4868E-12    163.74  6.5277E-12      1.28
    0.00     25.00     -0.73  -999.99    -0.73      0.0000    -25.00 LINEAR  5.6472E-01     29.80  2.6333E-01   -150.20
    5.00     25.00     -0.66   -54.95    -0.66      0.0019    -25.16 LEFT    5.6850E-01     29.44  2.6706E-01   -150.84
   10.00     25.00     -0.47   -43.03    -0.47      0.0074    -25.66 LEFT    5.7921E-01     28.45  2.7825E-01   -152.65
   15.00     25.00     -0.17   -36.27    -0.17      0.0157    -26.49 LEFT    5.9531E-01     26.94  2.9685E-01   -155.31
   20.00     25.00      0.20   -31.71     0.20      0.0254    -27.68 LEFT    6.1427E-01     25.08  3.2254E-01   -158.46
   25.00     25.00      0.58   -28.43     0.58      0.0354    -29.21 LEFT    6.3272E-01     23.03  3.5443E-01   -161.73
   30.00     25.00      0.93   -26.06     0.94      0.0447    -31.09 LEFT    6.4668E-01     20.91  3.9087E-01   -164.87
   35.00     25.00      1.21   -24.44     1.23      0.0522    -33.30 LEFT    6.5210E-01     18.77  4.2945E-01   -167.73
   40.00     25.00      1.39   -23.49     1.40      0.0570    -35.82 LEFT    6.4542E-01     16.63  4.6694E-01   -170.24
   45.00     25.00      1.42   -23.25     1.43      0.0584    -38.62 LEFT    6.2415E-01     14.47  4.9944E-01   -172.39
   50.00     25.00      1.27   -23.84     1.29      0.0555    -41.64 LEFT    5.8736E-01     12.21  5.2258E-01   -174.19
   55.00     25.00      0.93   -25.55     0.94      0.0475    -44.77 LEFT    5.3601E-01      9.78  5.3182E-01   -175.66
   60.00     25.00      0.33   -29.10     0.34      0.0338    -47.88 LEFT    4.7292E-01      7.05  5.2286E-01   -176.84
   65.00     25.00     -0.56   -37.52    -0.56      0.0142    -50.74 LEFT    4.0234E-01      3.92  4.9219E-01   -177.74
   70.00     25.00     -1.86   -41.02    -1.86      0.0110    -53.06 RIGHT   3.2904E-01      0.30  4.3752E-01   -178.39
   75.00     25.00     -3.75   -31.42    -3.74      0.0414    -54.42 RIGHT   2.5670E-01     -3.80  3.5835E-01   -178.80
   80.00     25.00     -6.65   -29.00    -6.62      0.0762    -54.20 RIGHT   1.8555E-01     -8.17  2.5623E-01   -178.99
   85.00     25.00    -11.92   -30.70   -11.87      0.1152    -51.44 RIGHT   1.0820E-01    -12.43  1.3488E-01   -178.96
   90.00     25.00   -999.99  -999.99  -999.99      0.0000      0.00         8.2463E-12    163.51  8.1484E-12      1.27
    0.00     30.00     -0.73  -999.99    -0.73      0.0000    -30.00 LINEAR  5.3962E-01     29.80  3.1155E-01   -150.20
    5.00     30.00     -0.66   -53.90    -0.66      0.0022    -30.18 LEFT    5.4330E-01     29.44  3.1600E-01   -150.84
   10.00     30.00     -0.44   -41.98    -0.44      0.0084    -30.74 LEFT    5.5372E-01     28.44  3.2935E-01   -152.65
   15.00     30.00     -0.11   -35.25    -0.11      0.0175    -31.68 LEFT    5.6943E-01     26.93  3.5156E-01   -155.32
   20.00     30.00      0.29   -30.71     0.29      0.0282    -33.01 LEFT    5.8801E-01     25.06  3.8226E-01   -158.47
   25.00     30.00      0.73   -27.48     0.73      0.0389    -34.71 LEFT    6.0620E-01     23.01  4.2041E-01   -161.74
   30.00     30.00      1.15   -25.17     1.16      0.0483    -36.77 LEFT    6.2018E-01     20.88  4.6407E-01   -164.89
   35.00     30.00      1.51   -23.61     1.52      0.0555    -39.15 LEFT    6.2602E-01     18.74  5.1038E-01   -167.75
   40.00     30.00      1.77   -22.74     1.78      0.0595    -41.82 LEFT    6.2025E-01     16.60  5.5549E-01   -170.26
   45.00     30.00      1.90   -22.59     1.91      0.0597    -44.73 LEFT    6.0040E-01     14.42  5.9474E-01   -172.41
   50.00     30.00      1.86   -23.28     1.87      0.0553    -47.78 LEFT    5.6552E-01     12.16  6.2290E-01   -174.20
   55.00     30.00      1.62   -25.11     1.63      0.0461    -50.88 LEFT    5.1647E-01      9.71  6.3448E-01   -175.68
   60.00     30.00      1.14   -28.82     1.14      0.0318    -53.88 LEFT    4.5594E-01      6.97  6.2432E-01   -176.85
   65.00     30.00      0.33   -37.64     0.33      0.0126    -56.59 LEFT    3.8803E-01      3.82  5.8812E-01   -177.76
   70.00     30.00     -0.89   -40.02    -0.89      0.0111    -58.76 RIGHT   3.1736E-01      0.17  5.2313E-01   -178.40
   75.00     30.00     -2.74   -30.93    -2.73      0.0390    -60.05 RIGHT   2.4755E-01     -3.97  4.2869E-01   -178.82
   80.00     30.00     -5.64   -28.58    -5.62      0.0713    -59.91 RIGHT   1.7889E-01     -8.38  3.0664E-01   -179.01
   85.00     30.00    -11.00   -30.24   -10.95      0.1092    -57.45 RIGHT   1.0429E-01    -12.68  1.6145E-01   -178.98
   90.00     30.00   -999.99  -999.99  -999.99      0.0000      0.00         7.9479E-12    163.25  9.7541E-12      1.25
    0.00     35.00     -0.73  -162.54    -0.73      0.0000    -35.00 LINEAR  5.1041E-01     29.80  3.5739E-01   -150.20
    5.00     35.00     -0.65   -53.20    -0.65      0.0024    -35.20 LEFT    5.1396E-01     29.44  3.6254E-01   -150.85
   10.00     35.00     -0.42   -41.30    -0.42      0.0090    -35.80 LEFT    5.2403E-01     28.44  3.7800E-01   -152.65
   15.00     35.00     -0.06   -34.58    -0.06      0.0188    -36.82 LEFT    5.3923E-01     26.92  4.0375E-01   -155.33
   20.00     35.00      0.39   -30.08     0.40      0.0299    -38.24 LEFT    5.5728E-01     25.05  4.3936E-01   -158.48
   25.00     35.00      0.89   -26.89     0.89      0.0408    -40.05 LEFT    5.7507E-01     22.99  4.8365E-01   -161.76
   30.00     35.00      1.38   -24.64     1.39      0.0500    -42.21 LEFT    5.8897E-01     20.85  5.3444E-01   -164.91
   35.00     35.00      1.82   -23.14     1.83      0.0565    -44.67 LEFT    5.9519E-01     18.70  5.8840E-01   -167.77
   40.00     35.00      2.17   -22.35     2.18      0.0595    -47.38 LEFT    5.9038E-01     16.55  6.4112E-01   -170.28
   45.00     35.00      2.39   -22.28     2.40      0.0584    -50.26 LEFT    5.7211E-01     14.37  6.8718E-01   -172.42
   50.00     35.00      2.45   -23.07     2.46      0.0529    -53.23 LEFT    5.3941E-01     12.10  7.2047E-01   -174.22
   55.00     35.00      2.30   -25.01     2.31      0.0431    -56.18 LEFT    4.9304E-01      9.64  7.3460E-01   -175.70
   60.00     35.00      1.90   -28.87     1.91      0.0289    -58.98 LEFT    4.3552E-01      6.88  7.2350E-01   -176.87
   65.00     35.00      1.18   -38.12     1.18      0.0108    -61.48 LEFT    3.7079E-01      3.71  6.8210E-01   -177.77
   70.00     35.00      0.01   -39.29     0.01      0.0108    -63.46 RIGHT   3.0328E-01      0.02  6.0715E-01   -178.42
   75.00     35.00     -1.80   -30.68    -1.80      0.0360    -64.65 RIGHT   2.3654E-01     -4.16  4.9781E-01   -178.84
   80.00     35.00     -4.71   -28.42    -4.69      0.0652    -64.57 RIGHT   1.7088E-01     -8.61  3.5623E-01   -179.03
   85.00     35.00    -10.13   -30.05   -10.08      0.1008    -62.44 RIGHT   9.9602E-02    -12.95  1.8761E-01   -179.00
   90.00     35.00   -999.99  -999.99  -999.99      0.0000      0.00         7.5897E-12    162.97  1.1335E-11      1.23
    0.00     40.00     -0.73  -999.99    -0.73      0.0000    -40.00 LINEAR  4.7732E-01     29.80  4.0052E-01   -150.20
    5.00     40.00     -0.65   -52.81    -0.65      0.0025    -40.21 LEFT    4.8071E-01     29.44  4.0635E-01   -150.85
   10.00     40.00     -0.39   -40.91    -0.39      0.0094    -40.84 LEFT    4.9033E-01     28.43  4.2385E-01   -152.66
   15.00     40.00      0.00   -34.22     0.00      0.0194    -41.90 LEFT    5.0489E-01     26.90  4.5301E-01   -155.34
   20.00     40.00      0.50   -29.76     0.50      0.0307    -43.37 LEFT    5.2224E-01     25.03  4.9338E-01   -158.49
   25.00     40.00      1.05   -26.61     1.06      0.0414    -45.22 LEFT    5.3947E-01     22.96  5.4366E-01   -161.78
   30.00     40.00      1.61   -24.41     1.62      0.0500    -47.41 LEFT    5.5314E-01     20.82  6.0141E-01   -164.92
   35.00     40.00      2.13   -22.98     2.14      0.0556    -49.86 LEFT    5.5966E-01     18.67  6.6290E-01   -167.79
   40.00     40.00      2.56   -22.25     2.58      0.0574    -52.50 LEFT    5.5581E-01     16.51  7.2314E-01   -170.30
   45.00     40.00      2.87   -22.27     2.88      0.0553    -55.27 LEFT    5.3923E-01     14.32  7.7599E-01   -172.44
   50.00     40.00      3.01   -23.14     3.02      0.0492    -58.07 LEFT    5.0895E-01     12.03  8.1450E-01   -174.24
   55.00     40.00      2.95   -25.17     2.96      0.0393    -60.80 LEFT    4.6561E-01      9.56  8.3136E-01   -175.72
   60.00     40.00      2.62   -29.17     2.62      0.0257    -63.36 LEFT    4.1156E-01      6.78  8.1959E-01   -176.89
   65.00     40.00      1.95   -38.90     1.95      0.0091    -65.62 LEFT    3.5053E-01      3.59  7.7337E-01   -177.79
   70.00     40.00      0.83   -38.79     0.83      0.0104    -67.41 RIGHT   2.8674E-01     -0.13  6.8888E-01   -178.44
   75.00     40.00     -0.95   -30.64    -0.95      0.0328    -68.48 RIGHT   2.2360E-01     -4.35  5.6516E-01   -178.86
   80.00     40.00     -3.86   -28.46    -3.84      0.0589    -68.45 RIGHT   1.6149E-01     -8.86  4.0459E-01   -179.05
   85.00     40.00     -9.31   -30.09    -9.28      0.0915    -66.62 RIGHT   9.4104E-02    -13.24  2.1313E-01   -179.02
   90.00     40.00   -999.99  -999.99  -999.99      0.0000      0.00         7.1701E-12    162.66  1.2879E-11      1.21
    0.00     45.00     -0.73  -999.99    -0.73      0.0000    -45.00 LINEAR  4.4060E-01     29.80  4.4060E-01   -150.20
    5.00     45.00     -0.64   -52.69    -0.64      0.0025    -45.21 LEFT    4.4379E-01     29.44  4.4707E-01   -150.85
   10.00     45.00     -0.36   -40.81    -0.36      0.0095    -45.85 LEFT    4.5287E-01     28.42  4.6652E-01   -152.66
   15.00     45.00      0.06   -34.14     0.07      0.0195    -46.92 LEFT    4.6663E-01     26.89  4.9896E-01   -155.35
   20.00     45.00      0.61   -29.71     0.61      0.0305    -48.39 LEFT    4.8311E-01     25.01  5.4390E-01   -158.51
   25.00     45.00      1.22   -26.61     1.23      0.0406    -50.23 LEFT    4.9958E-01     22.94  5.9994E-01   -161.79
   30.00     45.00      1.84   -24.46     1.85      0.0484    -52.37 LEFT    5.1284E-01     20.79  6.6442E-01   -164.94
   35.00     45.00      2.43   -23.08     2.45      0.0530    -54.74 LEFT    5.1952E-01     18.63  7.3322E-01   -167.81
   40.00     45.00      2.94   -22.42     2.96      0.0539    -57.25 LEFT    5.1658E-01     16.46  8.0081E-01   -170.32
   45.00     45.00      3.33   -22.50     3.34      0.0511    -59.83 LEFT    5.0178E-01     14.26  8.6037E-01   -172.46
   50.00     45.00      3.55   -23.45     3.55      0.0447    -62.41 LEFT    4.7411E-01     11.97  9.0411E-01   -174.26
   55.00     45.00      3.55   -25.56     3.55      0.0350    -64.89 LEFT    4.3413E-01      9.48  9.2382E-01   -175.74
   60.00     45.00      3.28   -29.69     3.28      0.0225    -67.19 LEFT    3.8400E-01      6.69  9.1166E-01   -176.91
   65.00     45.00      2.66   -39.94     2.66      0.0074    -69.20 LEFT    3.2718E-01      3.46  8.6100E-01   -177.82
   70.00     45.00      1.58   -38.52     1.58      0.0099    -70.78 RIGHT   2.6767E-01     -0.29  7.6752E-01   -178.47
   75.00     45.00     -0.19   -30.77    -0.18      0.0296    -71.74 RIGHT   2.0870E-01     -4.56  6.3006E-01   -178.88
   80.00     45.00     -3.09   -28.68    -3.08      0.0525    -71.75 RIGHT   1.5069E-01     -9.11  4.5125E-01   -179.07
   85.00     45.00     -8.58   -30.32    -8.55      0.0818    -70.19 RIGHT   8.7784E-02    -13.53  2.3777E-01   -179.05
   90.00     45.00   -999.99  -999.99  -999.99      0.0000      0.00         6.6877E-12    162.35  1.4369E-11      1.19
    0.00     50.00     -0.73  -999.99    -0.73      0.0000    -50.00 LINEAR  4.0052E-01     29.80  4.7732E-01   -150.20
    5.00     50.00     -0.63   -52.84    -0.63      0.0025    -50.21 LEFT    4.0348E-01     29.44  4.8440E-01   -150.85
   10.00     50.00     -0.34   -40.97    -0.34      0.0093    -50.84 LEFT    4.1191E-01     28.42  5.0569E-01   -152.67
   15.00     50.00      0.13   -34.32     0.13      0.0190    -51.88 LEFT    4.2473E-01     26.88  5.4121E-01   -155.36
   20.00     50.00      0.71   -29.92     0.72      0.0294    -53.32 LEFT    4.4011E-01     24.99  5.9048E-01   -158.52
   25.00     50.00      1.38   -26.87     1.39      0.0387    -55.09 LEFT    4.5560E-01     22.91  6.5199E-01   -161.81
   30.00     50.00      2.07   -24.76     2.08      0.0455    -57.12 LEFT    4.6824E-01     20.76  7.2286E-01   -164.96
   35.00     50.00      2.73   -23.44     2.74      0.0492    -59.34 LEFT    4.7493E-01     18.59  7.9866E-01   -167.83
   40.00     50.00      3.30   -22.83     3.32      0.0493    -61.66 LEFT    4.7283E-01     16.41  8.7333E-01   -170.34
   45.00     50.00      3.76   -22.97     3.77      0.0461    -64.01 LEFT    4.5982E-01     14.21  9.3940E-01   -172.49
   50.00     50.00      4.04   -23.97     4.04      0.0398    -66.33 LEFT    4.3493E-01     11.90  9.8830E-01   -174.28
   55.00     50.00      4.09   -26.16     4.10      0.0307    -68.54 LEFT    3.9862E-01      9.40  1.0109E+00   -175.76
   60.00     50.00      3.87   -30.41     3.87      0.0193    -70.57 LEFT    3.5283E-01      6.59  9.9862E-01   -176.93
   65.00     50.00      3.29   -41.23     3.29      0.0059    -72.33 LEFT    3.0074E-01      3.34  9.4397E-01   -177.84
   70.00     50.00      2.24   -38.48     2.24      0.0092    -73.72 RIGHT   2.4606E-01     -0.45  8.4211E-01   -178.49
   75.00     50.00      0.49   -31.10     0.50      0.0263    -74.57 RIGHT   1.9183E-01     -4.76  6.9170E-01   -178.90
   80.00     50.00     -2.40   -29.09    -2.40      0.0463    -74.60 RIGHT   1.3846E-01     -9.37  4.9561E-01   -179.09
   85.00     50.00     -7.91   -30.74    -7.89      0.0722    -73.29 RIGHT   8.0642E-02    -13.83  2.6122E-01   -179.07
   90.00     50.00   -999.99  -999.99  -999.99      0.0000      0.00         6.1432E-12    162.03  1.5787E-11      1.16
    0.00     55.00     -0.73  -999.99    -0.73      0.0000    -55.00 LINEAR  3.5739E-01     29.80  5.1041E-01   -150.20
    5.00     55.00     -0.63   -53.27    -0.63      0.0023    -55.20 LEFT    3.6009E-01     29.43  5.1806E-01   -150.85
   10.00     55.00     -0.31   -41.40    -0.31      0.0088    -55.80 LEFT    3.6777E-01     28.41  5.4105E-01   -152.67
   15.00     55.00      0.18   -34.78     0.19      0.0179    -56.79 LEFT    3.7946E-01     26.87  5.7942E-01   -155.37
   20.00     55.00      0.82   -30.41     0.82      0.0275    -58.14 LEFT    3.9355E-01     24.97  6.3270E-01   -158.54
   25.00     55.00      1.53   -27.39     1.54      0.0358    -59.79 LEFT    4.0782E-01     22.88  6.9930E-01   -161.83
   30.00     55.00      2.28   -25.33     2.29      0.0416    -61.67 LEFT    4.1962E-01     20.72  7.7617E-01   -164.98
   35.00     55.00      3.00   -24.05     3.01      0.0444    -63.69 LEFT    4.2612E-01     18.55  8.5853E-01   -167.84
   40.00     55.00      3.64   -23.49     3.64      0.0440    -65.78 LEFT    4.2474E-01     16.37  9.3989E-01   -170.36
   45.00     55.00      4.14   -23.68     4.15      0.0406    -67.87 LEFT    4.1353E-01     14.15  1.0122E+00   -172.50
   50.00     55.00      4.48   -24.73     4.48      0.0346    -69.91 LEFT    3.9155E-01     11.84  1.0660E+00   -174.30
   55.00     55.00      4.58   -26.99     4.58      0.0264    -71.84 LEFT    3.5916E-01      9.32  1.0916E+00   -175.78
   60.00     55.00      4.40   -31.35     4.40      0.0163    -73.60 LEFT    3.1811E-01      6.50  1.0793E+00   -176.95
   65.00     55.00      3.85   -42.77     3.85      0.0047    -75.13 LEFT    2.7125E-01      3.22  1.0211E+00   -177.86
   70.00     55.00      2.82   -38.70     2.82      0.0084    -76.32 RIGHT   2.2196E-01     -0.60  9.1159E-01   -178.51
   75.00     55.00      1.09   -31.65     1.09      0.0231    -77.06 RIGHT   1.7300E-01     -4.96  7.4920E-01   -178.92
   80.00     55.00     -1.80   -29.70    -1.80      0.0403    -77.10 RIGHT   1.2484E-01     -9.62  5.3704E-01   -179.11
   85.00     55.00     -7.32   -31.38    -7.31      0.0627    -76.02 RIGHT   7.2691E-02    -14.12  2.8313E-01   -179.09
   90.00     55.00   -999.99  -999.99  -999.99      0.0000      0.00         5.5367E-12    161.73  1.7113E-11      1.14
    0.00     60.00     -0.73  -999.99    -0.73      0.0000    -60.00 LINEAR  3.1155E-01     29.80  5.3962E-01   -150.20
    5.00     60.00     -0.62   -54.01    -0.62      0.0021    -60.18 LEFT    3.1395E-01     29.43  5.4777E-01   -150.85
   10.00     60.00     -0.29   -42.14    -0.29      0.0081    -60.73 LEFT    3.2077E-01     28.41  5.7230E-01   -152.68
   15.00     60.00      0.24   -35.53     0.24      0.0163    -61.64 LEFT    3.3118E-01     26.86  6.1327E-01   -155.37
   20.00     60.00      0.91   -31.20     0.91      0.0248    -62.87 LEFT    3.4376E-01     24.95  6.7018E-01   -158.55
   25.00     60.00      1.68   -28.21     1.68      0.0320    -64.36 LEFT    3.5656E-01     22.86  7.4142E-01   -161.84
   30.00     60.00      2.47   -26.18     2.48      0.0369    -66.04 LEFT    3.6726E-01     20.69  8.2375E-01   -165.00
   35.00     60.00      3.24   -24.94     3.25      0.0390    -67.83 LEFT    3.7337E-01     18.51  9.1214E-01   -167.86
   40.00     60.00      3.93   -24.42     3.94      0.0382    -69.66 LEFT    3.7258E-01     16.32  9.9967E-01   -170.37
   45.00     60.00      4.49   -24.65     4.49      0.0349    -71.47 LEFT    3.6312E-01     14.10  1.0777E+00   -172.52
   50.00     60.00      4.86   -25.75     4.87      0.0295    -73.22 LEFT    3.4415E-01     11.77  1.1362E+00   -174.32
   55.00     60.00      5.01   -28.06     5.01      0.0222    -74.87 LEFT    3.1594E-01      9.25  1.1646E+00   -175.79
   60.00     60.00      4.86   -32.53     4.86      0.0135    -76.37 LEFT    2.8000E-01      6.41  1.1525E+00   -176.97
   65.00     60.00      4.34   -44.58     4.34      0.0036    -77.66 LEFT    2.3883E-01      3.11  1.0913E+00   -177.87
   70.00     60.00      3.33   -39.21     3.33      0.0075    -78.67 RIGHT   1.9544E-01     -0.74  9.7487E-01   -178.52
   75.00     60.00      1.61   -32.44     1.61      0.0198    -79.30 RIGHT   1.5231E-01     -5.15  8.0164E-01   -178.94
   80.00     60.00     -1.28   -30.56    -1.28      0.0343    -79.35 RIGHT   1.0988E-01     -9.85  5.7486E-01   -179.13
   85.00     60.00     -6.81   -32.26    -6.80      0.0534    -78.46 RIGHT   6.3964E-02    -14.40  3.0314E-01   -179.11
   90.00     60.00   -999.99  -999.99  -999.99      0.0000      0.00         4.8718E-12    161.43  1.8324E-11      1.13
    0.00     65.00     -0.73  -999.99    -0.73      0.0000    -65.00 LINEAR  2.6333E-01     29.80  5.6472E-01   -150.20
    5.00     65.00     -0.61   -55.12    -0.61      0.0019    -65.16 LEFT    2.6540E-01     29.43  5.7332E-01   -150.85
   10.00     65.00     -0.26   -43.24    -0.26      0.0071    -65.65 LEFT    2.7126E-01     28.40  5.9919E-01   -152.68
   15.00     65.00      0.29   -36.65     0.29      0.0142    -66.44 LEFT    2.8023E-01     26.84  6.4244E-01   -155.38
   20.00     65.00      1.00   -32.33     1.00      0.0216    -67.52 LEFT    2.9109E-01     24.94  7.0257E-01   -158.56
   25.00     65.00      1.80   -29.37     1.80      0.0276    -68.82 LEFT    3.0220E-01     22.84  7.7789E-01   -161.86
   30.00     65.00      2.64   -27.38     2.65      0.0315    -70.26 LEFT    3.1156E-01     20.66  8.6507E-01   -165.01
   35.00     65.00      3.46   -26.17     3.46      0.0330    -71.79 LEFT    3.1706E-01     18.47  9.5882E-01   -167.88
   40.00     65.00      4.19   -25.68     4.19      0.0321    -73.33 LEFT    3.1670E-01     16.28  1.0519E+00   -170.39
   45.00     65.00      4.78   -25.94     4.79      0.0291    -74.86 LEFT    3.0896E-01     14.05  1.1350E+00   -172.54
   50.00     65.00      5.19   -27.07     5.20      0.0244    -76.32 LEFT    2.9307E-01     11.72  1.1978E+00   -174.34
   55.00     65.00      5.37   -29.43     5.37      0.0182    -77.68 LEFT    2.6924E-01      9.18  1.2288E+00   -175.81
   60.00     65.00      5.25   -34.01     5.25      0.0109    -78.92 LEFT    2.3873E-01      6.32  1.2171E+00   -176.99
   65.00     65.00      4.75   -46.72     4.75      0.0027    -79.98 LEFT    2.0369E-01      3.00  1.1532E+00   -177.89
   70.00     65.00      3.75   -40.08     3.75      0.0064    -80.82 RIGHT   1.6669E-01     -0.88  1.0308E+00   -178.54
   75.00     65.00      2.04   -33.56     2.04      0.0166    -81.34 RIGHT   1.2988E-01     -5.32  8.4804E-01   -178.96
   80.00     65.00     -0.84   -31.74    -0.84      0.0285    -81.40 RIGHT   9.3670E-02    -10.07  6.0835E-01   -179.15
   85.00     65.00     -6.38   -33.45    -6.37      0.0443    -80.68 RIGHT   5.4516E-02    -14.65  3.2087E-01   -179.12
   90.00     65.00   -999.99  -999.99  -999.99      0.0000      0.00         4.1518E-12    161.16  1.9397E-11      1.11
    0.00     70.00     -0.73  -999.99    -0.73      0.0000    -70.00 LINEAR  2.1311E-01     29.80  5.8552E-01   -150.20
    5.00     70.00     -0.61   -56.71    -0.61      0.0016    -70.13 LEFT    2.1481E-01     29.43  5.9449E-01   -150.85
   10.00     70.00     -0.24   -44.81    -0.24      0.0059    -70.54 LEFT    2.1963E-01     28.39  6.2151E-01   -152.69
   15.00     70.00      0.33   -38.22     0.33      0.0118    -71.21 LEFT    2.2701E-01     26.83  6.6668E-01   -155.39
   20.00     70.00      1.07   -33.92     1.07      0.0178    -72.10 LEFT    2.3596E-01     24.92  7.2953E-01   -158.57
   25.00     70.00      1.91   -30.98     1.91      0.0227    -73.17 LEFT    2.4515E-01     22.81  8.0833E-01   -161.87
   30.00     70.00      2.78   -29.02     2.79      0.0257    -74.36 LEFT    2.5296E-01     20.63  8.9963E-01   -165.02
   35.00     70.00      3.63   -27.83     3.64      0.0267    -75.60 LEFT    2.5764E-01     18.44  9.9795E-01   -167.89
   40.00     70.00      4.40   -27.37     4.40      0.0258    -76.85 LEFT    2.5757E-01     16.24  1.0957E+00   -170.40
   45.00     70.00      5.03   -27.65     5.03      0.0232    -78.07 LEFT    2.5147E-01     14.01  1.1833E+00   -172.55
   50.00     70.00      5.47   -28.82     5.47      0.0193    -79.24 LEFT    2.3871E-01     11.66  1.2498E+00   -174.35
   55.00     70.00      5.67   -31.22     5.67      0.0143    -80.33 LEFT    2.1942E-01      9.12  1.2831E+00   -175.82
   60.00     70.00      5.56   -35.88     5.56      0.0085    -81.31 LEFT    1.9464E-01      6.24  1.2717E+00   -177.00
   65.00     70.00      5.08   -49.29     5.08      0.0019    -82.16 LEFT    1.6610E-01      2.91  1.2057E+00   -177.90
   70.00     70.00      4.10   -41.41     4.10      0.0053    -82.82 RIGHT   1.3592E-01     -1.01  1.0783E+00   -178.55
   75.00     70.00      2.40   -35.09     2.40      0.0133    -83.24 RIGHT   1.0589E-01     -5.48  8.8750E-01   -178.97
   80.00     70.00     -0.48   -33.33    -0.48      0.0228    -83.29 RIGHT   7.6344E-02    -10.28  6.3685E-01   -179.16
   85.00     70.00     -6.03   -35.06    -6.02      0.0353    -82.74 RIGHT   4.4422E-02    -14.89  3.3596E-01   -179.14
   90.00     70.00   -999.99  -999.99  -999.99      0.0000      0.00         3.3826E-12    160.91  2.0311E-11      1.10
    0.00     75.00     -0.73  -999.99    -0.73      0.0000    -75.00 LINEAR  1.6127E-01     29.80  6.0187E-01   -150.20
    5.00     75.00     -0.60   -58.99    -0.60      0.0012    -75.10 LEFT    1.6258E-01     29.42  6.1114E-01   -150.86
   10.00     75.00     -0.23   -47.05    -0.23      0.0046    -75.42 LEFT    1.6628E-01     28.38  6.3907E-01   -152.69
   15.00     75.00      0.36   -40.46     0.36      0.0091    -75.93 LEFT    1.7194E-01     26.82  6.8578E-01   -155.39
   20.00     75.00      1.12   -36.17     1.13      0.0137    -76.62 LEFT    1.7881E-01     24.90  7.5080E-01   -158.58
   25.00     75.00      1.99   -33.25     1.99      0.0173    -77.45 LEFT    1.8590E-01     22.79  8.3238E-01   -161.88
   30.00     75.00      2.90   -31.30     2.90      0.0195    -78.35 LEFT    1.9195E-01     20.60  9.2699E-01   -165.03
   35.00     75.00      3.78   -30.13     3.78      0.0202    -79.29 LEFT    1.9563E-01     18.41  1.0290E+00   -167.90
   40.00     75.00      4.57   -29.69     4.57      0.0194    -80.24 LEFT    1.9571E-01     16.20  1.1305E+00   -170.42
   45.00     75.00      5.22   -29.99     5.22      0.0174    -81.16 LEFT    1.9120E-01     13.96  1.2218E+00   -172.56
   50.00     75.00      5.68   -31.18     5.68      0.0144    -82.04 LEFT    1.8159E-01     11.61  1.2912E+00   -174.36
   55.00     75.00      5.90   -33.62     5.90      0.0106    -82.85 LEFT    1.6699E-01      9.06  1.3265E+00   -175.83
   60.00     75.00      5.81   -38.38     5.81      0.0062    -83.58 LEFT    1.4816E-01      6.17  1.3154E+00   -177.01
   65.00     75.00      5.34   -52.54     5.34      0.0013    -84.21 LEFT    1.2644E-01      2.81  1.2478E+00   -177.91
   70.00     75.00      4.37   -43.37     4.37      0.0041    -84.71 RIGHT   1.0346E-01     -1.12  1.1164E+00   -178.57
   75.00     75.00      2.68   -37.25     2.68      0.0101    -85.02 RIGHT   8.0571E-02     -5.64  9.1916E-01   -178.98
   80.00     75.00     -0.20   -35.54    -0.20      0.0171    -85.07 RIGHT   5.8071E-02    -10.47  6.5973E-01   -179.17
   85.00     75.00     -5.75   -37.29    -5.75      0.0265    -84.67 RIGHT   3.3780E-02    -15.12  3.4809E-01   -179.15
   90.00     75.00   -999.99  -999.99  -999.99      0.0000      0.00         2.5721E-12    160.66  2.1045E-11      1.09
    0.00     80.00     -0.73  -999.99    -0.73      0.0000    -80.00 LINEAR  1.0820E-01     29.80  6.1363E-01   -150.20
    5.00     80.00     -0.60   -62.49    -0.60      0.0008    -80.07 LEFT    1.0910E-01     29.42  6.2312E-01   -150.86
   10.00     80.00     -0.22   -50.46    -0.22      0.0031    -80.28 LEFT    1.1162E-01     28.37  6.5171E-01   -152.69
   15.00     80.00      0.39   -43.84     0.39      0.0061    -80.63 LEFT    1.1546E-01     26.79  6.9954E-01   -155.40
   20.00     80.00      1.17   -39.55     1.17      0.0092    -81.10 LEFT    1.2013E-01     24.87  7.6615E-01   -158.58
   25.00     80.00      2.05   -36.63     2.05      0.0116    -81.66 LEFT    1.2495E-01     22.75  8.4976E-01   -161.88
   30.00     80.00      2.98   -34.69     2.98      0.0131    -82.27 LEFT    1.2908E-01     20.57  9.4679E-01   -165.04
   35.00     80.00      3.88   -33.53     3.88      0.0135    -82.91 LEFT    1.3162E-01     18.36  1.0515E+00   -167.91
   40.00     80.00      4.69   -33.10     4.69      0.0129    -83.54 LEFT    1.3173E-01     16.16  1.1558E+00   -170.42
   45.00     80.00      5.36   -33.42     5.36      0.0115    -84.15 LEFT    1.2875E-01     13.91  1.2498E+00   -172.57
   50.00     80.00      5.83   -34.64     5.83      0.0095    -84.74 LEFT    1.2231E-01     11.55  1.3214E+00   -174.37
   55.00     80.00      6.06   -37.12     6.06      0.0069    -85.28 LEFT    1.1249E-01      8.99  1.3581E+00   -175.84
   60.00     80.00      5.99   -41.98     5.99      0.0040    -85.77 LEFT    9.9809E-02      6.09  1.3473E+00   -177.02
[...]
   30.00    320.00      1.16   -23.49     1.17      0.0586     47.61 RIGHT   4.5779E-01    -11.41  5.0121E-01    -18.14
   35.00    320.00      1.79   -22.01     1.81      0.0646     50.12 RIGHT   4.6864E-01    -13.91  5.6010E-01    -21.43
   40.00    320.00      2.33   -21.20     2.35      0.0666     52.82 RIGHT   4.7058E-01    -16.34  6.1877E-01    -24.25
   45.00    320.00      2.74   -21.08     2.76      0.0644     55.61 RIGHT   4.6120E-01    -18.71  6.7149E-01    -26.62
   50.00    320.00      2.97   -21.73     2.98      0.0582     58.41 RIGHT   4.3932E-01    -21.12  7.1172E-01    -28.57
   55.00    320.00      2.98   -23.36     2.99      0.0482     61.13 RIGHT   4.0524E-01    -23.65  7.3252E-01    -30.16
   60.00    320.00      2.72   -26.45     2.73      0.0348     63.66 RIGHT   3.6085E-01    -26.42  7.2722E-01    -31.42
   65.00    320.00      2.11   -32.55     2.11      0.0185     65.87 RIGHT   3.0936E-01    -29.55  6.9016E-01    -32.38
   70.00    320.00      1.03   -68.69     1.03      0.0003     67.60 LEFT    2.5450E-01    -33.13  6.1761E-01    -33.08
   75.00    320.00     -0.72   -34.03    -0.72      0.0216     68.62 LEFT    1.9938E-01    -37.16  5.0848E-01    -33.52
   80.00    320.00     -3.60   -30.34    -3.59      0.0460     68.53 LEFT    1.4447E-01    -41.45  3.6494E-01    -33.74
   85.00    320.00     -9.04   -31.41    -9.01      0.0761     66.65 LEFT    8.4337E-02    -45.61  1.9254E-01    -33.73
   90.00    320.00   -999.99  -999.99  -999.99      0.0000      0.00         6.4276E-12    130.43  1.1641E-11    146.49
    0.00    325.00     -1.64  -999.99    -1.64      0.0000     35.00 LINEAR  4.0237E-01     -0.16  2.8174E-01     -0.16
    5.00    325.00     -1.54   -52.31    -1.54      0.0029     35.20 RIGHT   4.0590E-01     -0.63  2.8630E-01     -0.98
   10.00    325.00     -1.26   -40.44    -1.26      0.0110     35.80 RIGHT   4.1596E-01     -1.94  3.0008E-01     -3.27
   15.00    325.00     -0.83   -33.72    -0.83      0.0227     36.84 RIGHT   4.3145E-01     -3.91  3.2334E-01     -6.62
   20.00    325.00     -0.29   -29.21    -0.28      0.0358     38.30 RIGHT   4.5043E-01     -6.28  3.5601E-01    -10.49
   25.00    325.00      0.31   -26.01     0.32      0.0483     40.17 RIGHT   4.7015E-01     -8.82  3.9726E-01    -14.43
   30.00    325.00      0.91   -23.72     0.93      0.0587     42.40 RIGHT   4.8724E-01    -11.38  4.4523E-01    -18.12
   35.00    325.00      1.46   -22.17     1.48      0.0658     44.93 RIGHT   4.9814E-01    -13.87  4.9693E-01    -21.40
   40.00    325.00      1.92   -21.29     1.94      0.0691     47.69 RIGHT   4.9956E-01    -16.28  5.4830E-01    -24.22
   45.00    325.00      2.24   -21.09     2.26      0.0681     50.60 RIGHT   4.8900E-01    -18.65  5.9428E-01    -26.59
   50.00    325.00      2.39   -21.67     2.41      0.0627     53.58 RIGHT   4.6527E-01    -21.04  6.2913E-01    -28.55
   55.00    325.00      2.32   -23.20     2.33      0.0529     56.53 RIGHT   4.2878E-01    -23.56  6.4679E-01    -30.14
   60.00    325.00      1.99   -26.18     2.00      0.0390     59.30 RIGHT   3.8156E-01    -26.31  6.4145E-01    -31.40
   65.00    325.00      1.32   -32.04     1.32      0.0215     61.75 RIGHT   3.2698E-01    -29.41  6.0821E-01    -32.36
   70.00    325.00      0.20   -63.41     0.20      0.0007     63.68 RIGHT   2.6899E-01    -32.96  5.4385E-01    -33.05
   75.00    325.00     -1.58   -34.28    -1.58      0.0232     64.80 LEFT    2.1078E-01    -36.95  4.4748E-01    -33.50
   80.00    325.00     -4.46   -30.39    -4.45      0.0505     64.67 LEFT    1.5279E-01    -41.17  3.2101E-01    -33.71
   85.00    325.00     -9.86   -31.43    -9.83      0.0834     62.49 LEFT    8.9222E-02    -45.30  1.6932E-01    -33.71
   90.00    325.00   -999.99  -999.99  -999.99      0.0000      0.00         6.8007E-12    130.77  1.0236E-11    146.52
    0.00    330.00     -1.64  -999.99    -1.64      0.0000     30.00 LINEAR  4.2539E-01     -0.16  2.4560E-01     -0.16
    5.00    330.00     -1.55   -53.01    -1.55      0.0027     30.18 RIGHT   4.2906E-01     -0.62  2.4954E-01     -0.98
   10.00    330.00     -1.29   -41.13    -1.29      0.0102     30.74 RIGHT   4.3951E-01     -1.94  2.6144E-01     -3.26
   15.00    330.00     -0.89   -34.39    -0.89      0.0211     31.70 RIGHT   4.5557E-01     -3.90  2.8152E-01     -6.60
   20.00    330.00     -0.39   -29.85    -0.39      0.0337     33.07 RIGHT   4.7518E-01     -6.26  3.0969E-01    -10.47
   25.00    330.00      0.15   -26.59     0.16      0.0460     34.82 RIGHT   4.9545E-01     -8.79  3.4522E-01    -14.41
   30.00    330.00      0.68   -24.24     0.69      0.0568     36.95 RIGHT   5.1287E-01    -11.34  3.8648E-01    -18.10
   35.00    330.00      1.15   -22.63     1.16      0.0648     39.40 RIGHT   5.2370E-01    -13.82  4.3086E-01    -21.38
   40.00    330.00      1.51   -21.67     1.53      0.0693     42.12 RIGHT   5.2455E-01    -16.23  4.7483E-01    -24.20
   45.00    330.00      1.74   -21.39     1.76      0.0698     45.07 RIGHT   5.1286E-01    -18.59  5.1406E-01    -26.57
   50.00    330.00      1.79   -21.87     1.80      0.0656     48.14 RIGHT   4.8746E-01    -20.97  5.4359E-01    -28.53
   55.00    330.00      1.62   -23.31     1.64      0.0567     51.24 RIGHT   4.4884E-01    -23.47  5.5826E-01    -30.12
   60.00    330.00      1.21   -26.16     1.21      0.0428     54.22 RIGHT   3.9915E-01    -26.21  5.5311E-01    -31.38
   65.00    330.00      0.46   -31.79     0.46      0.0244     56.89 RIGHT   3.4194E-01    -29.28  5.2399E-01    -32.34
   70.00    330.00     -0.72   -55.57    -0.72      0.0018     59.00 RIGHT   2.8128E-01    -32.80  4.6820E-01    -33.03
   75.00    330.00     -2.52   -34.72    -2.52      0.0245     60.22 LEFT    2.2046E-01    -36.74  3.8501E-01    -33.48
   80.00    330.00     -5.40   -30.64    -5.39      0.0547     60.02 LEFT    1.5987E-01    -40.92  2.7608E-01    -33.69
   85.00    330.00    -10.74   -31.66   -10.70      0.0899     57.54 LEFT    9.3384E-02    -45.00  1.4558E-01    -33.68
   90.00    330.00   -999.99  -999.99  -999.99      0.0000      0.00         7.1189E-12    131.08  8.8003E-12    146.54
    0.00    335.00     -1.64  -999.99    -1.64      0.0000     25.00 LINEAR  4.4518E-01     -0.16  2.0759E-01     -0.16
    5.00    335.00     -1.55   -54.07    -1.55      0.0024     25.16 RIGHT   4.4896E-01     -0.62  2.1089E-01     -0.98
   10.00    335.00     -1.31   -42.18    -1.31      0.0091     25.66 RIGHT   4.5971E-01     -1.93  2.2087E-01     -3.26
   15.00    335.00     -0.94   -35.42    -0.94      0.0189     26.51 RIGHT   4.7621E-01     -3.88  2.3768E-01     -6.59
   20.00    335.00     -0.49   -30.84    -0.49      0.0304     27.73 RIGHT   4.9631E-01     -6.24  2.6126E-01    -10.46
   25.00    335.00     -0.01   -27.54     0.00      0.0420     29.31 RIGHT   5.1699E-01     -8.76  2.9097E-01    -14.39
   30.00    335.00      0.45   -25.14     0.47      0.0525     31.25 RIGHT   5.3460E-01    -11.31  3.2541E-01    -18.08
   35.00    335.00      0.84   -23.45     0.86      0.0610     33.52 RIGHT   5.4529E-01    -13.79  3.6240E-01    -21.36
   40.00    335.00      1.11   -22.42     1.13      0.0666     36.10 RIGHT   5.4556E-01    -16.18  3.9896E-01    -24.18
   45.00    335.00      1.24   -22.05     1.26      0.0685     38.94 RIGHT   5.3284E-01    -18.54  4.3146E-01    -26.55
   50.00    335.00      1.18   -22.42     1.20      0.0660     41.99 RIGHT   5.0597E-01    -20.91  4.5579E-01    -28.51
   55.00    335.00      0.91   -23.74     0.93      0.0585     45.13 RIGHT   4.6551E-01    -23.40  4.6764E-01    -30.10
   60.00    335.00      0.39   -26.45     0.40      0.0455     48.22 RIGHT   4.1374E-01    -26.11  4.6291E-01    -31.36
   65.00    335.00     -0.45   -31.86    -0.44      0.0269     51.05 RIGHT   3.5432E-01    -29.17  4.3820E-01    -32.32
   70.00    335.00     -1.70   -52.10    -1.70      0.0030     53.32 RIGHT   2.9145E-01    -32.65  3.9128E-01    -33.01
   75.00    335.00     -3.55   -35.41    -3.54      0.0255     54.62 LEFT    2.2849E-01    -36.55  3.2159E-01    -33.46
   80.00    335.00     -6.41   -31.13    -6.40      0.0581     54.35 LEFT    1.6574E-01    -40.69  2.3051E-01    -33.67
   85.00    335.00    -11.67   -32.17   -11.63      0.0944     51.57 LEFT    9.6844E-02    -44.73  1.2152E-01    -33.66
   90.00    335.00   -999.99  -999.99  -999.99      0.0000      0.00         7.3836E-12    131.36  7.3455E-12    146.56
    0.00    340.00     -1.64  -999.99    -1.64      0.0000     20.00 LINEAR  4.6158E-01     -0.16  1.6800E-01     -0.16
    5.00    340.00     -1.56   -55.59    -1.56      0.0020     20.14 RIGHT   4.6544E-01     -0.62  1.7065E-01     -0.97
   10.00    340.00     -1.33   -43.69    -1.33      0.0076     20.55 RIGHT   4.7643E-01     -1.92  1.7867E-01     -3.25
   15.00    340.00     -0.99   -36.91    -0.99      0.0160     21.27 RIGHT   4.9327E-01     -3.87  1.9217E-01     -6.58
   20.00    340.00     -0.57   -32.30    -0.57      0.0259     22.30 RIGHT   5.1373E-01     -6.22  2.1109E-01    -10.45
   25.00    340.00     -0.14   -28.96    -0.13      0.0362     23.65 RIGHT   5.3469E-01     -8.74  2.3490E-01    -14.38
   30.00    340.00      0.26   -26.51     0.27      0.0459     25.32 RIGHT   5.5240E-01    -11.28  2.6248E-01    -18.06
   35.00    340.00      0.57   -24.76     0.58      0.0542     27.30 RIGHT   5.6290E-01    -13.75  2.9205E-01    -21.34
   40.00    340.00      0.75   -23.65     0.77      0.0603     29.60 RIGHT   5.6264E-01    -16.14  3.2122E-01    -24.16
   45.00    340.00      0.77   -23.18     0.79      0.0635     32.19 RIGHT   5.4902E-01    -18.49  3.4707E-01    -26.53
   50.00    340.00      0.60   -23.44     0.62      0.0628     35.03 RIGHT   5.2090E-01    -20.85  3.6631E-01    -28.49
   55.00    340.00      0.21   -24.64     0.22      0.0572     38.05 RIGHT   4.7891E-01    -23.33  3.7552E-01    -30.08
   60.00    340.00     -0.43   -27.19    -0.43      0.0459     41.11 RIGHT   4.2544E-01    -26.03  3.7144E-01    -31.34
   65.00    340.00     -1.38   -32.37    -1.38      0.0282     43.97 RIGHT   3.6424E-01    -29.07  3.5137E-01    -32.30
   70.00    340.00     -2.72   -50.45    -2.72      0.0041     46.30 RIGHT   2.9961E-01    -32.52  3.1357E-01    -32.99
   75.00    340.00     -4.62   -36.44    -4.62      0.0257     47.64 LEFT    2.3492E-01    -36.39  2.5760E-01    -33.44
   80.00    340.00     -7.48   -31.98    -7.46      0.0595     47.29 LEFT    1.7046E-01    -40.49  1.8458E-01    -33.65
   85.00    340.00    -12.63   -33.07   -12.59      0.0950     44.31 LEFT    9.9628E-02    -44.50  9.7289E-02    -33.64
   90.00    340.00   -999.99  -999.99  -999.99      0.0000      0.00         7.5966E-12    131.61  5.8802E-12    146.58
    0.00    345.00     -1.64  -170.66    -1.64      0.0000     15.00 LINEAR  4.7446E-01     -0.16  1.2713E-01     -0.16
    5.00    345.00     -1.56   -57.77    -1.56      0.0015     15.11 RIGHT   4.7839E-01     -0.62  1.2913E-01     -0.97
   10.00    345.00     -1.35   -45.86    -1.35      0.0060     15.43 RIGHT   4.8955E-01     -1.92  1.3515E-01     -3.25
   15.00    345.00     -1.03   -39.06    -1.03      0.0125     15.99 RIGHT   5.0663E-01     -3.86  1.4531E-01     -6.58
   20.00    345.00     -0.64   -34.43    -0.64      0.0204     16.79 RIGHT   5.2735E-01     -6.21  1.5953E-01    -10.44
   25.00    345.00     -0.25   -31.06    -0.25      0.0288     17.86 RIGHT   5.4850E-01     -8.72  1.7741E-01    -14.36
   30.00    345.00      0.09   -28.56     0.10      0.0369     19.18 RIGHT   5.6624E-01    -11.25  1.9810E-01    -18.05
   35.00    345.00      0.34   -26.75     0.35      0.0442     20.78 RIGHT   5.7656E-01    -13.72  2.2025E-01    -21.33
   40.00    345.00      0.44   -25.57     0.45      0.0501     22.66 RIGHT   5.7584E-01    -16.11  2.4206E-01    -24.15
   45.00    345.00      0.36   -25.01     0.38      0.0539     24.82 RIGHT   5.6148E-01    -18.45  2.6135E-01    -26.52
   50.00    345.00      0.08   -25.17     0.09      0.0547     27.25 RIGHT   5.3236E-01    -20.81  2.7564E-01    -28.48
   55.00    345.00     -0.44   -26.23    -0.42      0.0513     29.91 RIGHT   4.8918E-01    -23.28  2.8238E-01    -30.07
   60.00    345.00     -1.21   -28.63    -1.20      0.0426     32.68 RIGHT   4.3438E-01    -25.96  2.7913E-01    -31.32
   65.00    345.00     -2.29   -33.60    -2.28      0.0272     35.35 RIGHT   3.7181E-01    -28.98  2.6391E-01    -32.29
   70.00    345.00     -3.73   -50.24    -3.73      0.0047     37.59 RIGHT   3.0583E-01    -32.42  2.3541E-01    -32.98
   75.00    345.00     -5.69   -38.03    -5.69      0.0242     38.86 LEFT    2.3984E-01    -36.26  1.9331E-01    -33.42
   80.00    345.00     -8.53   -33.43    -8.52      0.0569     38.46 LEFT    1.7407E-01    -40.32  1.3848E-01    -33.64
   85.00    345.00    -13.54   -34.61   -13.51      0.0885     35.49 LEFT    1.0176E-01    -44.31  7.2977E-02    -33.63
   90.00    345.00   -999.99  -999.99  -999.99      0.0000      0.00         7.7599E-12    131.81  4.4107E-12    146.60
    0.00    350.00     -1.64  -999.99    -1.64      0.0000     10.00 LINEAR  4.8374E-01     -0.16  8.5296E-02     -0.16
    5.00    350.00     -1.57   -61.06    -1.57      0.0011     10.07 RIGHT   4.8771E-01     -0.62  8.6629E-02     -0.97
   10.00    350.00     -1.36   -49.15    -1.36      0.0041     10.29 RIGHT   4.9899E-01     -1.92  9.0655E-02     -3.25
   15.00    350.00     -1.05   -42.34    -1.05      0.0086     10.68 RIGHT   5.1624E-01     -3.86  9.7434E-02     -6.57
   20.00    350.00     -0.69   -37.69    -0.69      0.0141     11.23 RIGHT   5.3712E-01     -6.20  1.0692E-01    -10.43
   25.00    350.00     -0.33   -34.29    -0.33      0.0200     11.96 RIGHT   5.5838E-01     -8.71  1.1885E-01    -14.36
   30.00    350.00     -0.03   -31.76    -0.03      0.0259     12.89 RIGHT   5.7613E-01    -11.24  1.3264E-01    -18.04
   35.00    350.00      0.16   -29.91     0.17      0.0314     14.01 RIGHT   5.8629E-01    -13.70  1.4740E-01    -21.32
   40.00    350.00      0.20   -28.67     0.20      0.0360     15.34 RIGHT   5.8522E-01    -16.09  1.6191E-01    -24.14
   45.00    350.00      0.04   -28.04     0.05      0.0395     16.90 RIGHT   5.7031E-01    -18.42  1.7471E-01    -26.51
   50.00    350.00     -0.34   -28.10    -0.33      0.0409     18.69 RIGHT   5.4047E-01    -20.77  1.8416E-01    -28.47
   55.00    350.00     -0.97   -29.04    -0.96      0.0395     20.70 RIGHT   4.9642E-01    -23.24  1.8857E-01    -30.05
   60.00    350.00     -1.87   -31.30    -1.87      0.0338     22.86 RIGHT   4.4068E-01    -25.92  1.8632E-01    -31.31
   65.00    350.00     -3.08   -36.06    -3.08      0.0224     25.00 RIGHT   3.7714E-01    -28.92  1.7609E-01    -32.27
   70.00    350.00     -4.64   -51.76    -4.64      0.0044     26.85 RIGHT   3.1021E-01    -32.34  1.5701E-01    -32.97
   75.00    350.00     -6.67   -40.72    -6.67      0.0198     27.90 LEFT    2.4330E-01    -36.16  1.2890E-01    -33.41
   80.00    350.00     -9.48   -36.02    -9.47      0.0471     27.51 LEFT    1.7662E-01    -40.20  9.2319E-02    -33.62
   85.00    350.00    -14.34   -37.32   -14.31      0.0710     24.98 LEFT    1.0327E-01    -44.17  4.8646E-02    -33.62
   90.00    350.00   -999.99  -999.99  -999.99      0.0000      0.00         7.8752E-12    131.96  2.9399E-12    146.61
    0.00    355.00     -1.64  -999.99    -1.64      0.0000      5.00 LINEAR  4.8933E-01     -0.16  4.2811E-02     -0.16
    5.00    355.00     -1.57   -66.95    -1.57      0.0005      5.04 RIGHT   4.9332E-01     -0.62  4.3478E-02     -0.97
   10.00    355.00     -1.37   -55.03    -1.37      0.0021      5.15 RIGHT   5.0467E-01     -1.92  4.5493E-02     -3.25
   15.00    355.00     -1.07   -48.21    -1.07      0.0044      5.34 RIGHT   5.2202E-01     -3.85  4.8886E-02     -6.57
   20.00    355.00     -0.73   -43.55    -0.73      0.0072      5.63 RIGHT   5.4299E-01     -6.19  5.3634E-02    -10.42
   25.00    355.00     -0.39   -40.14    -0.38      0.0103      6.00 RIGHT   5.6432E-01     -8.70  5.9600E-02    -14.35
   30.00    355.00     -0.11   -37.59    -0.11      0.0134      6.47 RIGHT   5.8206E-01    -11.23  6.6495E-02    -18.03
   35.00    355.00      0.05   -35.71     0.05      0.0163      7.05 RIGHT   5.9211E-01    -13.69  7.3865E-02    -21.31
   40.00    355.00      0.05   -34.43     0.05      0.0189      7.74 RIGHT   5.9083E-01    -16.07  8.1108E-02    -24.13
   45.00    355.00     -0.16   -33.74    -0.16      0.0209      8.56 RIGHT   5.7558E-01    -18.40  8.7492E-02    -26.50
   50.00    355.00     -0.61   -33.74    -0.61      0.0221      9.52 RIGHT   5.4529E-01    -20.75  9.2198E-02    -28.46
   55.00    355.00     -1.32   -34.60    -1.32      0.0217     10.60 RIGHT   5.0072E-01    -23.21  9.4375E-02    -30.05
   60.00    355.00     -2.32   -36.75    -2.32      0.0190     11.80 RIGHT   4.4442E-01    -25.89  9.3222E-02    -31.31
   65.00    355.00     -3.63   -41.37    -3.63      0.0130     13.02 RIGHT   3.8031E-01    -28.89  8.8080E-02    -32.27
   70.00    355.00     -5.29   -56.51    -5.29      0.0027     14.09 RIGHT   3.1281E-01    -32.29  7.8523E-02    -32.96
   75.00    355.00     -7.38   -46.12    -7.38      0.0116     14.71 LEFT    2.4536E-01    -36.10  6.4453E-02    -33.41
   80.00    355.00    -10.17   -41.36   -10.17      0.0276     14.45 LEFT    1.7813E-01    -40.13  4.6155E-02    -33.62
   85.00    355.00    -14.89   -42.78   -14.88      0.0403     12.95 LEFT    1.0416E-01    -44.08  2.4319E-02    -33.61
   90.00    355.00   -999.99  -999.99  -999.99      0.0000      0.00         7.9437E-12    132.05  1.4697E-12    146.61
    0.00    360.00     -1.64  -999.99    -1.64      0.0000     -0.00 LINEAR  4.9120E-01     -0.16  1.0027E-11    179.84
    5.00    360.00     -1.57  -999.99    -1.57      0.0000     -0.00 LINEAR  4.9520E-01     -0.62  1.0183E-11    179.03
   10.00    360.00     -1.37  -999.99    -1.37      0.0000     -0.00 LINEAR  5.0657E-01     -1.91  1.0655E-11    176.76
   15.00    360.00     -1.08  -999.99    -1.08      0.0000     -0.00 LINEAR  5.2395E-01     -3.85  1.1449E-11    173.43
   20.00    360.00     -0.74  -999.99    -0.74      0.0000     -0.00 LINEAR  5.4495E-01     -6.19  1.2560E-11    169.58
   25.00    360.00     -0.40  -999.99    -0.40      0.0000     -0.00 LINEAR  5.6630E-01     -8.70  1.3955E-11    165.65
   30.00    360.00     -0.13  -999.99    -0.13      0.0000     -0.00 LINEAR  5.8403E-01    -11.22  1.5568E-11    161.97
   35.00    360.00      0.01  -999.99     0.01      0.0000     -0.00 LINEAR  5.9405E-01    -13.69  1.7292E-11    158.69
   40.00    360.00     -0.01  -999.99    -0.01      0.0000     -0.00 LINEAR  5.9269E-01    -16.07  1.8985E-11    155.87
   45.00    360.00     -0.23  -999.99    -0.23      0.0000     -0.00 LINEAR  5.7733E-01    -18.40  2.0477E-11    153.50
   50.00    360.00     -0.71  -999.99    -0.71      0.0000     -0.00 LINEAR  5.4690E-01    -20.75  2.1576E-11    151.54
   55.00    360.00     -1.45  -999.99    -1.45      0.0000     -0.00 LINEAR  5.0215E-01    -23.20  2.2083E-11    149.95
   60.00    360.00     -2.48  -999.99    -2.48      0.0000     -0.00 LINEAR  4.4566E-01    -25.88  2.1811E-11    148.70
   65.00    360.00     -3.84  -999.99    -3.84      0.0000     -0.00 LINEAR  3.8135E-01    -28.87  2.0606E-11    147.73
   70.00    360.00     -5.53  -999.99    -5.53      0.0000     -0.00 LINEAR  3.1367E-01    -32.28  1.8369E-11    147.04
   75.00    360.00     -7.64  -999.99    -7.64      0.0000     -0.00 LINEAR  2.4604E-01    -36.08  1.5077E-11    146.60
   80.00    360.00    -10.42  -999.99   -10.42      0.0000     -0.00 LINEAR  1.7863E-01    -40.10  1.0796E-11    146.39
   85.00    360.00    -15.08  -999.99   -15.08      0.0000     -0.00 LINEAR  1.0446E-01    -44.05  5.6883E-12    146.39
   90.00    360.00   -999.99  -999.99  -999.99      0.0000      0.00         7.9663E-12    132.08  3.4377E-22    -33.39
  DATA CARD No:   7 EN   0     0     0     0  0.00000E+00  0.00000E+00  0.00000E+00  0.00000E+00  0.00000E+00  0.00000E+00

  TOTAL RUN TIME: 940 msec