                   ****************************************
                     MINI-NUMERICAL ELECTROMAGNETICS CODE
                                   MININEC
                   ****************************************

ENVIRONMENT (+1 FOR FREE SPACE, -1 FOR GROUND PLANE): -1
 NUMBER OF MEDIA (0 FOR PERFECTLY CONDUCTING GROUND):  0

NO. OF GEO-OBJECTS: 7

WIRE NO. 1
            COORDINATES                                 END         NO. OF
   X             Y             Z          RADIUS     CONNECTION     SEGMENTS
 0             .049987       10.51999                   0
 0            -.049987       10.51999      .002011      0              2

WIRE NO. 2
            COORDINATES                                 END         NO. OF
   X             Y             Z          RADIUS     CONNECTION     SEGMENTS
-5             9.172011      3.509985                   0
 0             .049987       10.51999      .002011      1             16

WIRE NO. 3
            COORDINATES                                 END         NO. OF
   X             Y             Z          RADIUS     CONNECTION     SEGMENTS
 0            -.049987       10.51999                   1
 5            -9.172011      3.509985      .002011      0             16

WIRE NO. 4
            COORDINATES                                 END         NO. OF
   X             Y             Z          RADIUS     CONNECTION     SEGMENTS
 4.032992      7.397008      4.86598                    0
 0             .049987       10.51999      .002011      1             16

WIRE NO. 5
            COORDINATES                                 END         NO. OF
   X             Y             Z          RADIUS     CONNECTION     SEGMENTS
 0            -.049987       10.51999                   1
-4.032992     -7.397008      4.86598       .002011      0             16

WIRE NO. 6
            COORDINATES                                 END         NO. OF
   X             Y             Z          RADIUS     CONNECTION     SEGMENTS
 0             4.194993      7.313981                   0
 0             .049987       10.51999      .002011      1              8

WIRE NO. 7
            COORDINATES                                 END         NO. OF
   X             Y             Z          RADIUS     CONNECTION     SEGMENTS
 0            -.049987       10.51999                   1
 0            -4.194993      7.313981      .002011      0              8

                  **** ANTENNA GEOMETRY ****

WIRE NO.  1 COORDINATES                                 CONNECTION PULSE
X             Y             Z             RADIUS        END1 END2  NO.
 0             0             10.51999      .002011       0    0   1

WIRE NO.  2 COORDINATES                                 CONNECTION PULSE
X             Y             Z             RADIUS        END1 END2  NO.
-4.6875        8.601885      3.948111      .002011       0    2   2
-4.375         8.031758      4.386236      .002011       2    2   3
-4.0625        7.461632      4.824361      .002011       2    2   4
-3.75          6.891505      5.262486      .002011       2    2   5
-3.4375        6.321379      5.700612      .002011       2    2   6
-3.125         5.751252      6.138737      .002011       2    2   7
-2.8125        5.181126      6.576862      .002011       2    2   8
-2.5           4.610999      7.014987      .002011       2    2   9
-2.1875        4.040873      7.453112      .002011       2    2  10
-1.875         3.470746      7.891238      .002011       2    2  11
-1.5625        2.90062       8.329363      .002011       2    2  12
-1.25          2.330493      8.767488      .002011       2    2  13
-.9375         1.760367      9.205613      .002011       2    2  14
-.625          1.19024       9.643739      .002011       2    2  15
-.3125         .620114       10.08186      .002011       2    2  16
 0             .049987       10.51999      .002011       2    1  17

WIRE NO.  3 COORDINATES                                 CONNECTION PULSE
X             Y             Z             RADIUS        END1 END2  NO.
 0            -.049987       10.51999      .002011       1    3  18
 .3125        -.620114       10.08186      .002011       3    3  19
 .625         -1.19024       9.643739      .002011       3    3  20
 .9375        -1.760367      9.205613      .002011       3    3  21
 1.25         -2.330493      8.767488      .002011       3    3  22
 1.5625       -2.90062       8.329363      .002011       3    3  23
 1.875        -3.470746      7.891238      .002011       3    3  24
 2.1875       -4.040873      7.453112      .002011       3    3  25
 2.5          -4.610999      7.014987      .002011       3    3  26
 2.8125       -5.181126      6.576862      .002011       3    3  27
 3.125        -5.751252      6.138737      .002011       3    3  28
 3.4375       -6.321379      5.700612      .002011       3    3  29
 3.75         -6.891505      5.262486      .002011       3    3  30
 4.0625       -7.461632      4.824361      .002011       3    3  31
 4.375        -8.031758      4.386236      .002011       3    3  32
 4.6875       -8.601885      3.948111      .002011       3    0  33

WIRE NO.  4 COORDINATES                                 CONNECTION PULSE
X             Y             Z             RADIUS        END1 END2  NO.
 3.78093       6.93782       5.219355      .002011       0    4  34
 3.528868      6.478631      5.572731      .002011       4    4  35
 3.276806      6.019442      5.926106      .002011       4    4  36
 3.024744      5.560253      6.279482      .002011       4    4  37
 2.772682      5.101064      6.632858      .002011       4    4  38
 2.52062       4.641875      6.986233      .002011       4    4  39
 2.268558      4.182687      7.339609      .002011       4    4  40
 2.016496      3.723498      7.692984      .002011       4    4  41
 1.764434      3.264309      8.04636       .002011       4    4  42
 1.512372      2.80512       8.399736      .002011       4    4  43
 1.26031       2.345931      8.753111      .002011       4    4  44
 1.008248      1.886742      9.106487      .002011       4    4  45
 .756186       1.427554      9.459862      .002011       4    4  46
 .504124       .968365       9.813238      .002011       4    4  47
 .252062       .509176       10.16661      .002011       4    4  48
 0             .049987       10.51999      .002011       4    1  49

WIRE NO.  5 COORDINATES                                 CONNECTION PULSE
X             Y             Z             RADIUS        END1 END2  NO.
 0            -.049987       10.51999      .002011       1    5  50
-.252062      -.509176       10.16661      .002011       5    5  51
-.504124      -.968365       9.813238      .002011       5    5  52
-.756186      -1.427554      9.459862      .002011       5    5  53
-1.008248     -1.886742      9.106487      .002011       5    5  54
-1.26031      -2.345931      8.753111      .002011       5    5  55
-1.512372     -2.80512       8.399736      .002011       5    5  56
-1.764434     -3.264309      8.04636       .002011       5    5  57
-2.016496     -3.723498      7.692984      .002011       5    5  58
-2.268558     -4.182687      7.339609      .002011       5    5  59
-2.52062      -4.641875      6.986233      .002011       5    5  60
-2.772682     -5.101064      6.632858      .002011       5    5  61
-3.024744     -5.560253      6.279482      .002011       5    5  62
-3.276806     -6.019442      5.926106      .002011       5    5  63
-3.528868     -6.478631      5.572731      .002011       5    5  64
-3.78093      -6.93782       5.219355      .002011       5    0  65

WIRE NO.  6 COORDINATES                                 CONNECTION PULSE
X             Y             Z             RADIUS        END1 END2  NO.
 0             3.676867      7.714732      .002011       0    6  66
 0             3.158741      8.115483      .002011       6    6  67
 0             2.640616      8.516234      .002011       6    6  68
 0             2.12249       8.916985      .002011       6    6  69
 0             1.604364      9.317736      .002011       6    6  70
 0             1.086239      9.718487      .002011       6    6  71
 0             .568113       10.11924      .002011       6    6  72
 0             .049987       10.51999      .002011       6    1  73

WIRE NO.  7 COORDINATES                                 CONNECTION PULSE
X             Y             Z             RADIUS        END1 END2  NO.
 0            -.049987       10.51999      .002011       1    7  74
 0            -.568113       10.11924      .002011       7    7  75
 0            -1.086239      9.718487      .002011       7    7  76
 0            -1.604364      9.317736      .002011       7    7  77
 0            -2.12249       8.916985      .002011       7    7  78
 0            -2.640616      8.516234      .002011       7    7  79
 0            -3.158741      8.115483      .002011       7    7  80
 0            -3.676867      7.714732      .002011       7    0  81

NO. OF SOURCES :  1
PULSE NO., VOLTAGE MAGNITUDE, PHASE (DEGREES):  1 , 1 , 0
NUMBER OF LOADS 2
PULSE NO., ORDER OF S-PARAMETER FUNCTION:  5 , 1
NUMERATOR, DENOMINATOR COEFFICIENTS OF S^0 : 0.1 , 1
NUMERATOR, DENOMINATOR COEFFICIENTS OF S^1 : 60 , 0
PULSE NO., ORDER OF S-PARAMETER FUNCTION:  30 , 1
NUMERATOR, DENOMINATOR COEFFICIENTS OF S^0 : 0.1 , 1
NUMERATOR, DENOMINATOR COEFFICIENTS OF S^1 : 60 , 0

FREQUENCY (MHZ): 7
    WAVE LENGTH =  42.82857  METERS

********************    SOURCE DATA     ********************
PULSE  1      VOLTAGE = ( 1 , 0 J)
              CURRENT = ( 2.542247E-02 , -9.613981E-04 J)
              IMPEDANCE = ( 39.27911 ,  1.485413 J)
              POWER =  1.271124E-02  WATTS

********************    CURRENT DATA    ********************

WIRE NO.  1 :
PULSE         REAL          IMAGINARY     MAGNITUDE     PHASE
 NO.          (AMPS)        (AMPS)        (AMPS)        (DEGREES)
J              3.107086E-03  1.398969E-03  3.407507E-03  24.23971 
 1             2.542247E-02 -9.613981E-04  2.544064E-02 -2.165715 
J              2.543555E-02 -9.673242E-04  2.545394E-02 -2.177932 
WIRE NO.  2 :
PULSE         REAL          IMAGINARY     MAGNITUDE     PHASE
 NO.          (AMPS)        (AMPS)        (AMPS)        (DEGREES)
E              0             0             0             0
 2            -3.144078E-04 -2.316006E-05  3.152596E-04 -175.7871 
 3            -6.325127E-04 -3.499731E-05  6.334801E-04 -176.833  
 4            -9.821348E-04 -3.710668E-05  9.828356E-04 -177.8363 
 5            -1.430722E-03 -3.087375E-05  1.431055E-03 -178.7638 
 6            -6.368805E-04  1.273796E-05  6.370078E-04  178.8542 
 7             4.768725E-05  6.467419E-05  8.035437E-05  53.59694 
 8             6.786297E-04  1.260703E-04  6.902405E-04  10.52397 
 9             1.260032E-03  1.967881E-04  1.275306E-03  8.876583 
 10            1.788375E-03  2.763356E-04  1.809598E-03  8.783747 
 11            2.258081E-03  3.639518E-04  2.287223E-03  9.156044 
 12            2.664339E-03  4.586284E-04  2.703524E-03  9.766942 
 13            3.004826E-03  5.591668E-04  3.056411E-03  10.54157 
 14            3.279181E-03  6.642768E-04  3.345787E-03  11.45167 
 15            3.487753E-03  7.725557E-04  3.572291E-03  12.48966 
 16            3.628731E-03  8.795776E-04  3.733811E-03  13.62528 
J              3.621763E-03  8.767145E-04  3.726365E-03  13.60774 
WIRE NO.  3 :
PULSE         REAL          IMAGINARY     MAGNITUDE     PHASE
 NO.          (AMPS)        (AMPS)        (AMPS)        (DEGREES)
J              3.621744E-03  8.767106E-04  3.726345E-03  13.60775 
 19            3.628712E-03  8.795737E-04  3.733791E-03  13.6253  
 20            3.487734E-03  7.725519E-04  3.572272E-03  12.48966 
 21            3.279162E-03  6.642731E-04  3.345768E-03  11.45167 
 22            3.004808E-03  5.591633E-04  3.056393E-03  10.54156 
 23            2.664324E-03  4.586251E-04  2.703508E-03  9.766931 
 24            2.258067E-03  3.639488E-04  2.287209E-03  9.156027 
 25            1.788364E-03  2.763332E-04  1.809587E-03  8.783726 
 26            1.260024E-03  1.967864E-04  1.275298E-03  8.876562 
 27            6.786252E-04  1.260693E-04  6.902360E-04  10.52396 
 28            4.768673E-05  6.467406E-05  8.035396E-05  53.59719 
 29           -6.368767E-04  1.273876E-05  6.370041E-04  178.8541 
 30           -1.430713E-03 -3.087189E-05  1.431046E-03 -178.7639 
 31           -9.821287E-04 -3.710539E-05  9.828294E-04 -177.8364 
 32           -6.325085E-04 -3.499645E-05  6.334760E-04 -176.8331 
 33           -3.144056E-04 -2.315962E-05  3.152574E-04 -175.7871 
E              0             0             0             0
WIRE NO.  4 :
PULSE         REAL          IMAGINARY     MAGNITUDE     PHASE
 NO.          (AMPS)        (AMPS)        (AMPS)        (DEGREES)
E              0             0             0             0
 34            2.288491E-03 -3.548697E-04  2.315842E-03 -8.814487 
 35            4.344613E-03 -6.648358E-04  4.395187E-03 -8.700214 
 36            6.284467E-03 -9.485331E-04  6.355646E-03 -8.583036 
 37            8.121069E-03 -1.208210E-03  8.210452E-03 -8.462096 
 38            9.851978E-03 -1.443707E-03  9.957196E-03 -8.336779 
 39            1.146968E-02 -1.654137E-03  1.158835E-02 -8.206509 
 40            1.296474E-02 -1.838393E-03  1.309444E-02 -8.070701 
 41            1.432718E-02 -1.995367E-03  1.446546E-02 -7.928664 
 42            1.554756E-02 -2.124057E-03  1.569198E-02 -7.779402 
 43            1.661790E-02 -2.223611E-03  1.676601E-02 -7.621373 
 44            1.753204E-02 -2.293321E-03  1.768140E-02 -7.452401 
 45            1.828541E-02 -2.332561E-03  1.843359E-02 -7.269618 
 46            1.887479E-02 -2.340602E-03  1.901936E-02 -7.068976 
 47            1.929864E-02 -2.315949E-03  1.943711E-02 -6.8431   
 48            1.956718E-02 -2.245271E-03  1.969558E-02 -6.545876 
J              1.870670E-02 -3.243008E-03  1.898573E-02 -9.835088 
WIRE NO.  5 :
PULSE         REAL          IMAGINARY     MAGNITUDE     PHASE
 NO.          (AMPS)        (AMPS)        (AMPS)        (DEGREES)
J              1.870672E-02 -3.243005E-03  1.898574E-02 -9.835073 
 51            1.956720E-02 -2.245267E-03  1.969559E-02 -6.545861 
 52            1.929866E-02 -2.315945E-03  1.943713E-02 -6.843084 
 53            1.887481E-02 -2.340598E-03  1.901938E-02 -7.068961 
 54            1.828543E-02 -2.332558E-03  1.843360E-02 -7.269602 
 55            1.753206E-02 -2.293318E-03  1.768141E-02 -7.452385 
 56            1.661791E-02 -2.223608E-03  1.676602E-02 -7.621357 
 57            1.554757E-02 -2.124054E-03  1.569199E-02 -7.779386 
 58            1.432720E-02 -1.995365E-03  1.446548E-02 -7.928648 
 59            1.296475E-02 -1.838391E-03  1.309445E-02 -8.070686 
 60            1.146969E-02 -1.654135E-03  1.158836E-02 -8.206494 
 61            9.851986E-03 -1.443706E-03  9.957204E-03 -8.336763 
 62            8.121075E-03 -1.208209E-03  8.210459E-03 -8.462081 
 63            6.284472E-03 -9.485321E-04  6.355651E-03 -8.583021 
 64            4.344617E-03 -6.648352E-04  4.395191E-03 -8.700198 
 65            2.288493E-03 -3.548693E-04  2.315844E-03 -8.814471 
E              0             0             0             0
WIRE NO.  6 :
PULSE         REAL          IMAGINARY     MAGNITUDE     PHASE
 NO.          (AMPS)        (AMPS)        (AMPS)        (DEGREES)
E              0             0             0             0
 66            4.528629E-04  3.020583E-06  4.528730E-04  .382156  
 67            8.305457E-04  1.842916E-05  8.307501E-04  1.27114  
 68            1.161156E-03  4.503185E-05  1.162029E-03  2.220927 
 69            1.450995E-03  8.217326E-05  1.453320E-03  3.241334 
 70            1.703287E-03  1.293048E-04  1.708188E-03  4.341275 
 71            1.920749E-03  1.858634E-04  1.929720E-03  5.527082 
 72            2.102493E-03  2.435441E-04  2.116552E-03  6.607458 
J              3.107086E-03  1.398969E-03  3.407507E-03  24.23971 
WIRE NO.  7 :
PULSE         REAL          IMAGINARY     MAGNITUDE     PHASE
 NO.          (AMPS)        (AMPS)        (AMPS)        (DEGREES)
J              3.107091E-03  1.398971E-03  3.407512E-03  24.2397  
 75            2.102495E-03  2.435446E-04  2.116554E-03  6.607466 
 76            1.920750E-03  1.858639E-04  1.929722E-03  5.527091 
 77            1.703288E-03  1.293052E-04  1.708189E-03  4.341284 
 78            1.450996E-03  8.217356E-05  1.453321E-03  3.241343 
 79            1.161157E-03  4.503208E-05  1.162030E-03  2.220937 
 80            8.305461E-04  1.842930E-05  8.307506E-04  1.271149 
 81            4.528630E-04  3.020638E-06  4.528730E-04  .382163  
E              0             0             0             0

********************     FAR FIELD      ********************

ZENITH ANGLE : INITIAL,INCREMENT,NUMBER: 0 , 11 , 9
AZIMUTH ANGLE: INITIAL,INCREMENT,NUMBER: 0 , 10 , 37

********************    PATTERN DATA    ********************
ZENITH        AZIMUTH       VERTICAL      HORIZONTAL    TOTAL
 ANGLE         ANGLE        PATTERN (DB)  PATTERN (DB)  PATTERN (DB)
 0             0            -1.404255      6.572737      7.214812
 11            0            -1.58677       6.503726      7.130377
 22            0            -2.140266      6.268693      6.853888
 33            0            -3.077952      5.783238      6.313951
 44            0            -4.403729      4.900518      5.382507
 55            0            -6.07448       3.381087      3.847426
 66            0            -7.925613      .776769       1.326047
 77            0            -9.567608     -4.103799     -3.017484
 88            0            -10.39807     -20.17658     -9.963534
 0             10            1.630015      5.809865      7.214812
 11            10            1.438514      5.736005      7.108754
 22            10            .857824       5.487364      6.772605
 33            10           -.126125       4.982073      6.149634
 44            10           -1.519062      4.076684      5.134145
 55            10           -3.280347      2.535228      3.546115
 66            10           -5.244349     -.087477       1.068658
 77            10           -7.002523     -4.980575     -2.864627
 88            10           -7.899213     -21.05865     -7.694307
 0             20            3.672124      4.678705      7.214812
 11            20            3.472496      4.600099      7.083091
 22            20            2.867857      4.338146      6.675227
 33            20            1.84524       3.813456      5.950205
 44            20            .400169       2.885913      4.828809
 55            20           -1.425613      1.322959      3.172879
 66            20           -3.463825     -1.317668      .750797 
 77            20           -5.294211     -6.222961     -2.723506
 88            20           -6.230992     -22.30619     -6.125077
 0             30            5.104961      3.067184      7.214812
 11            30            4.898215      2.985075      7.05645 
 22            30            4.272809      2.713305      6.572984
 33            30            3.217342      2.174337      5.737375
 44            30            1.72938       1.230538      4.497418
 55            30           -.147276      -.348131       2.763757
 66            30           -2.24142      -3.00181       .405305 
 77            30           -4.124266     -7.915956     -2.608521
 88            30           -5.089604     -24.00292     -5.034183
 0             40            6.103271      .752301       7.214812
 11            40            5.890913      .669461       7.03204 
 22            40            5.249147      .395663       6.478112
 33            40            4.167827     -.146195       5.536102
 44            40            2.646134     -1.093191      4.177372
 55            40            .729459      -2.674846      2.362968
 66            40           -1.408788     -5.330917      .068932 
 77            40           -3.333188     -10.24664     -2.528574
 88            40           -4.321251     -26.33425     -4.294016
 0             50            6.757743     -2.789749      7.214812
 11            50            6.541756     -2.867488      7.012835
 22            50            5.889292     -3.126979      6.402445
 33            50            4.790665     -3.647994      5.372126
 44            50            3.245499     -4.571191      3.909959
 55            50            1.299406     -6.129753      2.020994
 66            50           -.873422      -8.766568     -.219727 
 77            50           -2.832376     -13.66918     -2.488199
 88            50           -3.840034     -29.75125     -3.828914
 0             60            7.117154     -9.314689      7.214812
 11            60            6.899819     -9.367791      7.001197
 22            60            6.243116     -9.55876       6.355823
 33            60            5.136732     -9.981467      5.268365
 44            60            3.57912      -10.79459      3.734931
 55            60            1.61422      -12.24853      1.789098
 66            60           -.584838      -14.79972     -.423329 
 77            60           -2.573483     -19.64488     -2.489068
 88            60           -3.599138     -35.70289     -3.596464
 0             70            7.205239     -19.3576       7.214812
 11            70            6.98889      -19.5233       6.998575
 22            70            6.334523     -20.02251      6.34456 
 33            70            5.229986     -20.87046      5.240633
 44            70            3.67077      -22.126        3.682187
 55            70            1.697049     -23.95499      1.708852
 66            70           -.521106      -26.77087     -.510819 
 77            70           -2.536212     -31.76853     -2.531032
 88            70           -3.579341     -47.88386     -3.57918 
 0             80            7.027517     -6.531079      7.214812
 11            80            6.814269     -6.656568      7.005304
 22            80            6.168166     -7.051027      6.370337
 33            80            5.074042     -7.771438      5.293927
 44            80            3.522695     -8.926429      3.76302 
 55            80            1.548516     -10.71427      1.79908 
 66            80           -.683389      -13.54564     -.46433  
 77            80           -2.723449     -18.58249     -2.612197
 88            80           -3.784514     -34.72171     -3.781015
 0             90            6.572737     -1.404255      7.214812
 11            90            6.364229     -1.510093      7.020559
 22            90            5.730949     -1.848756      6.429827
 33            90            4.653711     -2.486075      5.420866
 44            90            3.117151     -3.543497      3.965566
 55            90            1.148159     -5.23382       2.047349
 66            90           -1.09476      -7.981678     -.285647 
 77            90           -3.160466     -12.96051     -2.727976
 88            90           -4.241085     -29.07493     -4.226839
 0             100           5.809865      1.630015      7.214812
 11            100           5.607046      1.536426      7.042459
 22            100           4.989169      1.232337      6.515212
 33            100           3.932297      .645959       5.603132
 44            100           2.413819     -.352471       4.257601
 55            100           .451816      -1.984699      2.412533
 66            100          -1.803078     -4.683475      .001568 
 77            100          -3.898264     -9.62856      -2.86953 
 88            100          -5.001718     -25.72865     -4.965136
 0             110           4.678705      3.672124      7.214812
 11            110           4.481677      3.588506      7.068312
 22            110           3.879355      3.312467      6.615454
 33            110           2.842612      2.76718       5.81536 
 44            110           1.340895      1.815992      4.595237
 55            110          -.617466       .229937       2.837171
 66            110          -2.890687     -2.430088      .356016 
 77            110          -5.024246     -7.348667     -3.022469
 88            110          -6.156699     -23.43753     -6.076222
 0             120           3.067184      5.104961      7.214812
 11            120           2.875098      5.029702      7.094969
 22            120           2.285708      4.777139      6.717984
 33            120           1.264438      4.266128      6.029912
 44            120          -.227728       3.354193      4.932799
 55            120          -2.193137      1.80636       3.261908
 66            120          -4.499938     -.82169        .727786 
 77            120          -6.690401     -5.718443     -3.166988
 88            120          -7.86399      -21.79807     -7.691904
 0             130           .752301       6.103271      7.214812
 11            130           .563216       6.034563      7.119211
 22            130          -.0192         5.800377      6.810433
 33            130          -1.035462      5.316153      6.221038
 44            130          -2.534147      4.434834      5.230106
 55            130          -4.530353      2.916758      3.635603
 66            130          -6.904717      .313569       1.068109
 77            130          -9.193713     -4.566232     -3.280463
 88            130          -10.43598     -20.63869     -10.04009
 0             140          -2.789749      6.757743      7.214812
 11            140          -2.979471      6.693445      7.138146
 22            140          -3.566517      6.471624      6.882097
 33            140          -4.599592      6.005408      6.367688
 44            140          -6.141328      5.144656      5.456197
 55            140          -8.227411      3.646556      3.919863
 66            140          -10.76117      1.06005       1.336592
 77            140          -13.26931     -3.808377     -3.342583
 88            140          -14.66396     -19.87603     -13.52066
 0             150          -9.314689      7.117154      7.214812
 11            150          -9.515086      7.054901      7.149535
 22            150          -10.14124      6.838818      6.925009
 33            150          -11.26406      6.380961      6.455019
 44            150          -12.98801      5.529757      5.590426
 55            150          -15.4204       4.040935      4.089823
 66            150          -18.57031      1.462177      1.505071
 77            150          -21.99701     -3.400965     -3.341372
 88            150          -24.10217     -19.46638     -18.18274
 0             160          -19.3576       7.205239      7.214812
 11            160          -19.50844      7.142667      7.152047
 22            160          -19.95304      6.92569       6.934591
 33            160          -20.65807      6.466538      6.47495 
 44            160          -21.53438      5.613862      5.622229
 55            160          -22.40238      4.123618      4.133271
 66            160          -23.03464      1.543675      1.558783
 77            160          -23.33263     -3.320274     -3.277183
 88            160          -23.40742     -19.38603     -17.93671
 0             170          -6.531079      7.027517      7.214812
 11            170          -6.701909      6.962518      7.145398
 22            170          -7.21784       6.738741      6.909954
 33            170          -8.084644      6.269686      6.426182
 44            170          -9.2944        5.405706      5.550422
 55            170          -10.79068      3.904482      4.04936 
 66            170          -12.40689      1.315371      1.495881
 77            170          -13.798       -3.554829     -3.162454
 88            170          -14.48431     -19.62323     -13.32397
 0             180          -1.404255      6.572737      7.214812
 11            180          -1.58677       6.503726      7.130376
 22            180          -2.140266      6.268693      6.853888
 33            180          -3.077951      5.783238      6.313951
 44            180          -4.403729      4.900518      5.382507
 55            180          -6.074479      3.381086      3.847426
 66            180          -7.925612      .776768       1.326047
 77            180          -9.567606     -4.1038       -3.017484
 88            180          -10.39807     -20.17658     -9.963532
 0             190           1.630015      5.809865      7.214812
 11            190           1.438514      5.736004      7.108754
 22            190           .857824       5.487364      6.772605
 33            190          -.126125       4.982073      6.149634
 44            190          -1.519062      4.076684      5.134145
 55            190          -3.280346      2.535228      3.546115
 66            190          -5.244348     -.087477       1.068658
 77            190          -7.002522     -4.980575     -2.864626
 88            190          -7.899211     -21.05865     -7.694305
 0             200           3.672124      4.678705      7.214812
 11            200           3.472495      4.600099      7.083091
 22            200           2.867857      4.338146      6.675227
 33            200           1.845239      3.813455      5.950205
 44            200           .400169       2.885912      4.828809
 55            200          -1.425613      1.322959      3.172878
 66            200          -3.463824     -1.317668      .750797 
 77            200          -5.29421      -6.222962     -2.723506
 88            200          -6.230991     -22.30619     -6.125076
 0             210           5.104961      3.067184      7.214812
 11            210           4.898215      2.985075      7.05645 
 22            210           4.272808      2.713304      6.572984
 33            210           3.217342      2.174336      5.737375
 44            210           1.72938       1.230538      4.497417
 55            210          -.147276      -.348131       2.763757
 66            210          -2.24142      -3.00181       .405305 
 77            210          -4.124265     -7.915956     -2.608521
 88            210          -5.089604     -24.00292     -5.034182
 0             220           6.103271      .752301       7.214812
 11            220           5.890913      .669461       7.03204 
 22            220           5.249146      .395663       6.478112
 33            220           4.167826     -.146195       5.536102
 44            220           2.646134     -1.093191      4.177372
 55            220           .729459      -2.674846      2.362967
 66            220          -1.408788     -5.330918      .068932 
 77            220          -3.333188     -10.24664     -2.528574
 88            220          -4.32125      -26.33425     -4.294016
 0             230           6.757743     -2.789749      7.214812
 11            230           6.541756     -2.867488      7.012835
 22            230           5.889292     -3.126979      6.402445
 33            230           4.790664     -3.647994      5.372126
 44            230           3.245499     -4.571191      3.909959
 55            230           1.299405     -6.129753      2.020994
 66            230          -.873422      -8.766568     -.219727 
 77            230          -2.832376     -13.66918     -2.488199
 88            230          -3.840034     -29.75125     -3.828914
 0             240           7.117154     -9.314689      7.214812
 11            240           6.899819     -9.367791      7.001197
 22            240           6.243116     -9.55876       6.355823
 33            240           5.136731     -9.981467      5.268365
 44            240           3.57912      -10.79459      3.734931
 55            240           1.61422      -12.24852      1.789098
 66            240          -.584838      -14.79972     -.423329 
 77            240          -2.573482     -19.64488     -2.489068
 88            240          -3.599138     -35.70289     -3.596463
 0             250           7.205239     -19.3576       7.214812
 11            250           6.98889      -19.5233       6.998575
 22            250           6.334523     -20.02251      6.34456 
 33            250           5.229986     -20.87048      5.240632
 44            250           3.67077      -22.12602      3.682187
 55            250           1.697049     -23.95501      1.708852
 66            250          -.521106      -26.7709      -.510819 
 77            250          -2.536211     -31.76856     -2.531032
 88            250          -3.579341     -47.88389     -3.579179
 0             260           7.027517     -6.531079      7.214812
 11            260           6.814269     -6.656569      7.005304
 22            260           6.168166     -7.051028      6.370336
 33            260           5.074042     -7.77144       5.293927
 44            260           3.522694     -8.926432      3.76302 
 55            260           1.548516     -10.71427      1.799079
 66            260          -.683388      -13.54564     -.46433  
 77            260          -2.723448     -18.58249     -2.612197
 88            260          -3.784513     -34.72171     -3.781015
 0             270           6.572737     -1.404255      7.214812
 11            270           6.364229     -1.510093      7.020559
 22            270           5.730949     -1.848757      6.429827
 33            270           4.653711     -2.486076      5.420866
 44            270           3.117151     -3.543498      3.965566
 55            270           1.148159     -5.233822      2.047349
 66            270          -1.094759     -7.98168      -.285647 
 77            270          -3.160466     -12.96051     -2.727976
 88            270          -4.241084     -29.07493     -4.226838
 0             280           5.809865      1.630015      7.214812
 11            280           5.607046      1.536426      7.042459
 22            280           4.989169      1.232336      6.515212
 33            280           3.932297      .645958       5.603132
 44            280           2.413819     -.352472       4.257601
 55            280           .451816      -1.9847        2.412533
 66            280          -1.803077     -4.683476      .001568 
 77            280          -3.898263     -9.628561     -2.86953 
 88            280          -5.001717     -25.72865     -4.965136
 0             290           4.678705      3.672124      7.214812
 11            290           4.481677      3.588505      7.068312
 22            290           3.879355      3.312467      6.615454
 33            290           2.842613      2.76718       5.81536 
 44            290           1.340895      1.815991      4.595236
 55            290          -.617466       .229937       2.837171
 66            290          -2.890686     -2.430089      .356016 
 77            290          -5.024246     -7.348668     -3.022469
 88            290          -6.156698     -23.43753     -6.076221
 0             300           3.067184      5.104961      7.214812
 11            300           2.875098      5.029702      7.094968
 22            300           2.285708      4.777139      6.717984
 33            300           1.264439      4.266128      6.029912
 44            300          -.227728       3.354192      4.932798
 55            300          -2.193137      1.80636       3.261908
 66            300          -4.499938     -.82169        .727786 
 77            300          -6.6904       -5.718444     -3.166988
 88            300          -7.863988     -21.79807     -7.691903
 0             310           .752301       6.103271      7.214812
 11            310           .563216       6.034563      7.119211
 22            310          -.0192         5.800377      6.810433
 33            310          -1.035461      5.316153      6.221038
 44            310          -2.534146      4.434834      5.230106
 55            310          -4.530352      2.916758      3.635603
 66            310          -6.904716      .313569       1.068109
 77            310          -9.193712     -4.566232     -3.280463
 88            310          -10.43597     -20.63869     -10.04009
 0             320          -2.789749      6.757743      7.214812
 11            320          -2.979471      6.693445      7.138146
 22            320          -3.566517      6.471624      6.882097
 33            320          -4.599591      6.005408      6.367689
 44            320          -6.141327      5.144656      5.456197
 55            320          -8.22741       3.646556      3.919863
 66            320          -10.76117      1.06005       1.336592
 77            320          -13.26931     -3.808377     -3.342583
 88            320          -14.66396     -19.87603     -13.52066
 0             330          -9.314689      7.117154      7.214812
 11            330          -9.515086      7.054901      7.149535
 22            330          -10.14124      6.838818      6.925009
 33            330          -11.26406      6.380961      6.455019
 44            330          -12.988        5.529757      5.590426
 55            330          -15.4204       4.040935      4.089823
 66            330          -18.57031      1.462177      1.505071
 77            330          -21.99701     -3.400965     -3.341372
 88            330          -24.10217     -19.46638     -18.18274
 0             340          -19.3576       7.205239      7.214812
 11            340          -19.50845      7.142667      7.152047
 22            340          -19.95306      6.92569       6.934592
 33            340          -20.65809      6.466538      6.47495 
 44            340          -21.5344       5.613863      5.622229
 55            340          -22.40241      4.123618      4.133272
 66            340          -23.03466      1.543675      1.558783
 77            340          -23.33265     -3.320274     -3.277183
 88            340          -23.40744     -19.38603     -17.93671
 0             350          -6.531079      7.027517      7.214812
 11            350          -6.701909      6.962519      7.145398
 22            350          -7.217841      6.738741      6.909954
 33            350          -8.084646      6.269687      6.426182
 44            350          -9.294402      5.405706      5.550422
 55            350          -10.79069      3.904482      4.04936 
 66            350          -12.4069       1.315372      1.495881
 77            350          -13.79801     -3.554828     -3.162454
 88            350          -14.48431     -19.62323     -13.32397
 0             360          -1.404255      6.572737      7.214812
 11            360          -1.58677       6.503726      7.130377
 22            360          -2.140266      6.268693      6.853888
 33            360          -3.077952      5.783238      6.313951
 44            360          -4.403729      4.900518      5.382507
 55            360          -6.07448       3.381087      3.847426
 66            360          -7.925613      .776769       1.326047
 77            360          -9.567608     -4.103799     -3.017484
 88            360          -10.39807     -20.17658     -9.963534

FREQUENCY (MHZ): 14
    WAVE LENGTH =  21.41429  METERS

********************    SOURCE DATA     ********************
PULSE  1      VOLTAGE = ( 1 , 0 J)
              CURRENT = ( 4.309142E-04 ,  3.136103E-03 J)
              IMPEDANCE = ( 43.00184 , -312.9584 J)
              POWER =  2.154571E-04  WATTS

********************    CURRENT DATA    ********************

WIRE NO.  1 :
PULSE         REAL          IMAGINARY     MAGNITUDE     PHASE
 NO.          (AMPS)        (AMPS)        (AMPS)        (DEGREES)
J             -6.633249E-05  8.815457E-03  8.815706E-03  90.43112 
 1             4.309142E-04  3.136103E-03  3.165570E-03  82.1763  
J              4.316139E-04  3.133603E-03  3.163188E-03  82.15758 
WIRE NO.  2 :
PULSE         REAL          IMAGINARY     MAGNITUDE     PHASE
 NO.          (AMPS)        (AMPS)        (AMPS)        (DEGREES)
E              0             0             0             0
 2            -9.695152E-06  2.463318E-05  2.647243E-05  111.4837 
 3            -1.239453E-05  5.223652E-05  5.368685E-05  103.3481 
 4            -8.151090E-06  8.913415E-05  8.950608E-05  95.22502 
 5             3.807460E-06  1.640303E-04  1.640745E-04  88.67029 
 6             8.956219E-06 -3.412715E-04  3.413890E-04 -88.49669 
 7             2.157880E-05 -7.891230E-04  7.894180E-04 -88.43362 
 8             4.057208E-05 -1.190224E-03  1.190915E-03 -88.04767 
 9             6.501555E-05 -1.535124E-03  1.536500E-03 -87.57486 
 10            9.374636E-05 -1.815444E-03  1.817863E-03 -87.04397 
 11            1.253234E-04 -2.026070E-03  2.029943E-03 -86.46046 
 12            1.579552E-04 -2.162747E-03  2.168507E-03 -85.82284 
 13            1.894823E-04 -2.219268E-03  2.227342E-03 -85.11989 
 14            2.175708E-04 -2.189395E-03  2.200179E-03 -84.32487 
 15            2.399484E-04 -2.070268E-03  2.084127E-03 -83.3888  
 16            2.544225E-04 -1.870979E-03  1.888199E-03 -82.25621 
J              2.550165E-04 -1.874569E-03  1.891836E-03 -82.25304 
WIRE NO.  3 :
PULSE         REAL          IMAGINARY     MAGNITUDE     PHASE
 NO.          (AMPS)        (AMPS)        (AMPS)        (DEGREES)
J              2.550231E-04 -1.874598E-03  1.891865E-03 -82.25296 
 19            2.544291E-04 -1.871008E-03  1.888228E-03 -82.25613 
 20            2.399551E-04 -2.070298E-03  2.084157E-03 -83.38871 
 21            2.175773E-04 -2.189425E-03  2.200209E-03 -84.32478 
 22            1.894885E-04 -2.219297E-03  2.227372E-03 -85.1198  
 23            1.579610E-04 -2.162774E-03  2.168535E-03 -85.82275 
 24            1.253285E-04 -2.026095E-03  2.029968E-03 -86.46036 
 25            9.375076E-05 -1.815466E-03  1.817885E-03 -87.04387 
 26            6.501913E-05 -1.535142E-03  1.536518E-03 -87.57475 
 27            4.057477E-05 -1.190238E-03  1.190929E-03 -88.04756 
 28            2.158053E-05 -7.891321E-04  7.894271E-04 -88.43351 
 29            8.956962E-06 -3.412754E-04  3.413929E-04 -88.49659 
 30            3.807153E-06  1.640320E-04  1.640762E-04  88.67041 
 31           -8.151315E-06  8.913521E-05  8.950715E-05  95.2251  
 32           -1.239470E-05  5.223719E-05  5.368754E-05  103.3481 
 33           -9.695253E-06  2.463350E-05  2.647277E-05  111.4836 
E              0             0             0             0
WIRE NO.  4 :
PULSE         REAL          IMAGINARY     MAGNITUDE     PHASE
 NO.          (AMPS)        (AMPS)        (AMPS)        (DEGREES)
E              0             0             0             0
 34            1.424389E-06 -4.049107E-04  4.049132E-04 -89.79845 
 35            8.114789E-06 -7.626461E-04  7.626892E-04 -89.39038 
 36            1.970511E-05 -1.085621E-03  1.085800E-03 -88.96014 
 37            3.585915E-05 -1.369484E-03  1.369953E-03 -88.50009 
 38            5.610874E-05 -1.608819E-03  1.609797E-03 -88.00258 
 39            7.984386E-05 -1.799341E-03  1.801112E-03 -87.45923 
 40            1.063236E-04 -1.938727E-03  1.941640E-03 -86.86093 
 41            1.346845E-04 -2.026702E-03  2.031172E-03 -86.198   
 42            1.639271E-04 -2.064124E-03  2.070623E-03 -85.45926 
 43            1.928948E-04 -2.051429E-03  2.060478E-03 -84.6283  
 44            2.203051E-04 -1.988102E-03  2.000271E-03 -83.67675 
 45            2.448403E-04 -1.873481E-03  1.889412E-03 -82.55436 
 46            2.652382E-04 -1.707216E-03  1.727697E-03 -81.16896 
 47            2.803692E-04 -1.487639E-03  1.513829E-03 -79.32689 
 48            2.897816E-04 -1.180561E-03  1.215606E-03 -76.20878 
J              2.429299E-04 -3.807284E-03  3.815026E-03 -86.3491  
WIRE NO.  5 :
PULSE         REAL          IMAGINARY     MAGNITUDE     PHASE
 NO.          (AMPS)        (AMPS)        (AMPS)        (DEGREES)
J              2.429368E-04 -3.807312E-03  3.815055E-03 -86.34902 
 51            2.897861E-04 -1.180572E-03  1.215617E-03 -76.2087  
 52            2.803740E-04 -1.487652E-03  1.513842E-03 -79.32681 
 53            2.652432E-04 -1.707231E-03  1.727712E-03 -81.16887 
 54            2.448454E-04 -1.873497E-03  1.889428E-03 -82.55427 
 55            2.203102E-04 -1.988119E-03  2.000289E-03 -83.67666 
 56            1.928998E-04 -2.051447E-03  2.060496E-03 -84.62821 
 57            1.639320E-04 -2.064142E-03  2.070642E-03 -85.45916 
 58            1.346891E-04 -2.026720E-03  2.031190E-03 -86.1979  
 59            1.063279E-04 -1.938744E-03  1.941657E-03 -86.86083 
 60            7.984772E-05 -1.799357E-03  1.801128E-03 -87.45913 
 61            5.611211E-05 -1.608833E-03  1.609811E-03 -88.00248 
 62            3.586196E-05 -1.369496E-03  1.369965E-03 -88.49998 
 63            1.970729E-05 -1.085630E-03  1.085809E-03 -88.96003 
 64            8.116297E-06 -7.626529E-04  7.626960E-04 -89.39027 
 65            1.425177E-06 -4.049143E-04  4.049168E-04 -89.79834 
E              0             0             0             0
WIRE NO.  6 :
PULSE         REAL          IMAGINARY     MAGNITUDE     PHASE
 NO.          (AMPS)        (AMPS)        (AMPS)        (DEGREES)
E              0             0             0             0
 66           -4.226196E-05  1.233460E-03  1.234184E-03  91.96235 
 67           -7.440807E-05  2.328168E-03  2.329356E-03  91.83055 
 68           -9.858048E-05  3.316311E-03  3.317776E-03  91.70267 
 69           -1.150215E-04  4.179176E-03  4.180759E-03  91.57653 
 70           -1.238841E-04  4.893904E-03  4.895472E-03  91.45007 
 71           -1.254106E-04  5.439298E-03  5.440744E-03  91.3208  
 72           -1.200765E-04  5.776762E-03  5.778009E-03  91.19079 
J             -6.633249E-05  8.815457E-03  8.815706E-03  90.43112 
WIRE NO.  7 :
PULSE         REAL          IMAGINARY     MAGNITUDE     PHASE
 NO.          (AMPS)        (AMPS)        (AMPS)        (DEGREES)
J             -6.634593E-05  8.815513E-03  8.815763E-03  90.4312  
 75           -1.200871E-04  5.776798E-03  5.778046E-03  91.19088 
 76           -1.254208E-04  5.439332E-03  5.440778E-03  91.3209  
 77           -1.238934E-04  4.893935E-03  4.895503E-03  91.45017 
 78           -1.150295E-04  4.179203E-03  4.180785E-03  91.57663 
 79           -9.858695E-05  3.316332E-03  3.317797E-03  91.70277 
 80           -7.441266E-05  2.328182E-03  2.329371E-03  91.83065 
 81           -4.226441E-05  1.233467E-03  1.234191E-03  91.96246 
E              0             0             0             0

********************     FAR FIELD      ********************

ZENITH ANGLE : INITIAL,INCREMENT,NUMBER: 0 , 11 , 9
AZIMUTH ANGLE: INITIAL,INCREMENT,NUMBER: 0 , 10 , 37

********************    PATTERN DATA    ********************
ZENITH        AZIMUTH       VERTICAL      HORIZONTAL    TOTAL
 ANGLE         ANGLE        PATTERN (DB)  PATTERN (DB)  PATTERN (DB)
 0             0            -14.40623      7.348731      7.377627
 11            0            -14.87102      7.207663      7.23449 
 22            0            -16.12727      6.701896      6.724477
 33            0            -17.61018      5.611545      5.632179
 44            0            -18.18733      3.645655      3.674038
 55            0            -17.08384      .530086       .604672 
 66            0            -15.04746     -3.899982     -3.57871 
 77            0            -13.30785     -10.14157     -8.432031
 88            0            -12.52624     -26.70262     -12.36332
 0             10           -4.550871      7.089721      7.377627
 11            10           -5.190522      6.934163      7.192586
 22            10           -7.134491      6.386219      6.57512 
 33            10           -10.24181      5.228678      5.350197
 44            10           -13.20779      3.173122      3.271919
 55            10           -12.98066     -.046738       .168822 
 66            10           -9.647495     -4.556909     -3.38519 
 77            10           -6.532897     -10.78576     -5.148008
 88            10           -5.161466     -27.29602     -5.13498 
 0             20           -.211255       6.546241      7.377627
 11            20           -.90153        6.380268      7.124742
 22            20           -3.038453      5.805902      6.338555
 33            20           -6.624665      4.619607      4.934049
 44            20           -10.43331      2.554421      2.767391
 55            20           -10.55846     -.628741      -.208378 
 66            20           -6.674124     -5.04533      -2.773511
 77            20           -3.088838     -11.18782     -2.463327
 88            20           -1.546702     -27.67753     -1.53613 
 0             30            2.477727      5.679656      7.377627
 11            30            1.759109      5.510587      7.038218
 22            30           -.47792        4.933858      6.031742
 33            30           -4.290894      3.766246      4.397394
 44            30           -8.474883      1.772995      2.164963
 55            30           -8.732268     -1.252071     -.538257 
 66            30           -4.593299     -5.448224     -1.989458
 77            30           -.821941      -11.45426     -.46184  
 88            30            .780779      -27.93533      .786612 
 0             40            4.31712       4.41696       7.377627
 11            40            3.583143      4.255248      6.942484
 22            40            1.296913      3.707189      5.677457
 33            40           -2.608823      2.608831      3.750837
 44            40           -6.91036       .754201       1.44057 
 55            40           -7.184861     -2.04217      -.882716 
 66            40           -2.97705      -5.965854     -1.20896 
 77            40            .830054      -11.8007       1.060793
 88            40            2.441024     -28.24972      2.444727
 0             50            5.609747      2.620315      7.377627
 11            50            4.871229      2.480183      6.84852 
 22            50            2.574405      2.000295      5.30713 
 33            50           -1.33471       1.026509      3.014733
 44            50           -5.603511     -.634846       .566014 
 55            50           -5.851655     -3.171541     -1.297754
 66            50           -1.689242     -6.825122     -.528191 
 77            50            2.076245     -12.48685      2.22552 
 88            50            3.67103      -28.88643      3.673439
 0             60            6.499686      .002859       7.377627
 11            60            5.766128     -.094087       6.767782
 22            60            3.48993      -.447587       4.963218
 33            60           -.360855      -1.219962      2.2411  
 44            60           -4.516052     -2.618014     -.453858 
 55            60           -4.735288     -4.857316     -1.785574
 66            60           -.680273      -8.239649      .021633 
 77            60            3.0109       -13.73084      3.101902
 88            60            4.580817     -30.07362      4.582304
 0             70            7.062969     -4.178214      7.377627
 11            70            6.342217     -4.184624      6.710805
 22            70            4.111013     -4.285885      4.69773 
 33            70            .360838      -4.691052      1.541738
 44            70           -3.637833     -5.661695     -1.522622
 55            70           -3.836057     -7.471337     -2.273643
 66            70            .081675      -10.49022      .446614 
 77            70            3.686898     -15.74799      3.736083
 88            70            5.229917     -32.00269      5.230738
 0             80            7.339996     -13.26355      7.377627
 11            80            6.637665     -12.91236      6.685571
 22            80            4.46836      -12.1061       4.562897
 33            80            .846149      -11.37459      1.09908 
 44            80           -2.970291     -11.21898     -2.364564
 55            80           -3.147392     -12.03547     -2.619763
 66            80            .62159       -14.26625      .760281 
 77            80            4.135621     -19.00228      4.156656
 88            80            5.650803     -35.04125      5.651173
 0             90            7.348731     -14.40623      7.377627
 11            90            6.667688     -15.17699      6.695995
 22            90            4.568632     -17.80033      4.59373 
 33            90            1.087102     -23.79855      1.101179
 44            90           -2.533969     -34.16061     -2.530984
 55            90           -2.679349     -24.29577     -2.64952 
 66            90            .944018      -22.17805      .965129 
 77            90            4.365058     -24.84022      4.37027 
 88            90            5.85148      -40.11916      5.85159 
 0             100           7.089721     -4.550871      7.377627
 11            100           6.429755     -4.86047       6.741003
 22            100           4.39952      -5.853283      4.791063
 33            100           1.053477     -7.71132       1.595387
 44            100          -2.379975     -10.69675     -1.783051
 55            100          -2.482196     -14.99771     -2.245419
 66            100           1.016154     -20.18523      1.048963
 77            100           4.351929     -25.83471      4.356087
 88            100           5.811268     -41.66807      5.811345
 0             110           6.546241     -.211255       7.377627
 11            110           5.903998     -.417498       6.814564
 22            110           3.93047      -1.092488      5.118276
 33            110           .692308      -2.38729       2.430244
 44            110          -2.59513      -4.500778     -.433959 
 55            110          -2.655782     -7.613066     -1.45217 
 66            110           .759604      -11.86347      .990741 
 77            110           4.036485     -17.91877      4.064083
 88            110           5.477108     -34.43536      5.477551
 0             120           5.679656      2.477727      7.377627
 11            120           5.048852      2.323211      6.906739
 22            120           3.109111      1.802543      5.515078
 33            120          -.074438       .765372       3.376035
 44            120          -3.302029     -.982535       1.021062
 55            120          -3.347301     -3.633848     -.477912 
 66            120           .051065      -7.425565      .765421 
 77            120           3.321323     -13.21303      3.416728
 88            120           4.761737     -29.67337      4.7633  
 0             130           4.41696       4.31712       7.377627
 11            130           3.788799      4.192078      7.005418
 22            130           1.849886      3.757116      5.917667
 33            130          -1.359092      2.856389      4.251517
 44            130          -4.665338      1.290494      2.272625
 55            130          -4.754651     -1.144724      .425366 
 66            130          -1.279895     -4.723772      .341247 
 77            130           2.067117     -10.365        2.30836 
 88            130           3.538027     -26.77245      3.542068
 0             140           2.620315      5.609747      7.377627
 11            140           1.983842      5.499272      7.098249
 22            140           .003509       5.10386       6.273272
 33            140          -3.33928       4.257596      4.953926
 44            140          -6.928528      2.749438      3.193648
 55            140          -7.167713      .364414       1.070397
 66            140          -3.481982     -3.180869     -.318516 
 77            140           .066071      -8.807482      .595364 
 88            140           1.612721     -25.21208      1.621734
 0             150           .002859       6.499686      7.377627
 11            150          -.655654       6.392116      7.174304
 22            150          -2.732188      5.999995      6.545744
 33            150          -6.36046       5.143067      5.439896
 44            150          -10.55655      3.592028      3.755975
 55            150          -11.14431      1.119184      1.369707
 66            150          -7.019216     -2.547507     -1.221285
 77            150          -3.065087     -8.281794     -1.922863
 88            150          -1.372664     -24.73424     -1.352682
 0             160          -4.178214      7.062969      7.377627
 11            160          -4.881452      6.949275      7.225231
 22            160          -7.15004       6.532887      6.715005
 33            160          -11.3621       5.616897      5.703109
 44            160          -16.91184      3.948536      3.984015
 55            160          -18.39799      1.283265      1.329752
 66            160          -13.25773     -2.625184     -2.265102
 77            160          -8.371507     -8.555394     -5.452177
 88            160          -6.372618     -25.08419     -6.314579
 0             170          -13.26355      7.339996      7.377627
 11            170          -14.11844      7.214043      7.245881
 22            170          -17.07976      6.755963      6.773882
 33            170          -23.82771      5.753937      5.758716
 44            170          -30.51224      3.931703      3.933264
 55            170          -27.24047      1.026056      1.032524
 66            170          -33.02098     -3.172564     -3.168069
 77            170          -23.03241     -9.305775     -9.125443
 88            170          -19.1293      -25.88606     -18.29778
 0             180          -14.40623      7.348731      7.377627
 11            180          -14.87106      7.207662      7.234489
 22            180          -16.12733      6.701895      6.724475
 33            180          -17.61024      5.611544      5.632177
 44            180          -18.18738      3.645651      3.674034
 55            180          -17.08386      .530077       .604663 
 66            180          -15.04742     -3.900001     -3.578725
 77            180          -13.30777     -10.1416      -8.432025
 88            180          -12.52613     -26.70266     -12.36322
 0             190          -4.550871      7.089721      7.377627
 11            190          -5.190533      6.934163      7.192585
 22            190          -7.134508      6.386218      6.575118
 33            190          -10.24181      5.228676      5.350195
 44            190          -13.20777      3.17312       3.271918
 55            190          -12.98067     -.04674        .16882  
 66            190          -9.647495     -4.556912     -3.385193
 77            190          -6.53287      -10.78576     -5.14799 
 88            190          -5.161428     -27.29602     -5.134943
 0             200          -.211255       6.546241      7.377627
 11            200          -.901537       6.380267      7.12474 
 22            200          -3.038464      5.8059        6.338552
 33            200          -6.624665      4.619606      4.934048
 44            200          -10.43328      2.554421      2.767393
 55            200          -10.55846     -.628734      -.208372 
 66            200          -6.674131     -5.045311     -2.773504
 77            200          -3.088824     -11.18779     -2.463311
 88            200          -1.546681     -27.67749     -1.536108
 0             210           2.477727      5.679656      7.377627
 11            210           1.759104      5.510586      7.038215
 22            210          -.477929       4.933856      6.031739
 33            210          -4.290893      3.766245      4.397393
 44            210          -8.474845      1.772998      2.164969
 55            210          -8.732264     -1.252056     -.538244 
 66            210          -4.593307     -5.448186     -1.989446
 77            210          -.821932      -11.45419     -.461828 
 88            210           .780793      -27.93525      .786626 
 0             220           4.31712       4.41696       7.377627
 11            220           3.583138      4.255247      6.942481
 22            220           1.296906      3.707187      5.677453
 33            220          -2.60882       2.608831      3.750837
 44            220          -6.910318      .754207       1.440581
 55            220          -7.184851     -2.042148     -.882696 
 66            220          -2.977057     -5.965801     -1.208947
 77            220           .830059      -11.80061      1.060803
 88            220           2.441034     -28.24961      2.444737
 0             230           5.609747      2.620315      7.377627
 11            230           4.871225      2.480181      6.848517
 22            230           2.574398      2.000293      5.307125
 33            230          -1.334707      1.026509      3.014734
 44            230          -5.603467     -.634837       .566031 
 55            230          -5.851638     -3.171514     -1.297731
 66            230          -1.689248     -6.825061     -.528181 
 77            230           2.076248     -12.48675      2.225527
 88            230           3.671037     -28.8863       3.673447
 0             240           6.499686      .002859       7.377627
 11            240           5.766123     -.094088       6.767778
 22            240           3.489923     -.447589       4.963213
 33            240          -.360851      -1.21996       2.241103
 44            240          -4.516007     -2.618003     -.453834 
 55            240          -4.735267     -4.857286     -1.785548
 66            240          -.680276      -8.239585      .021639 
 77            240           3.010902     -13.73073      3.101907
 88            240           4.580823     -30.0735       4.58231 
 0             250           7.062969     -4.178214      7.377627
 11            250           6.342213     -4.184625      6.710801
 22            250           4.111007     -4.285885      4.697724
 33            250           .360842      -4.691049      1.541742
 44            250          -3.637789     -5.661682     -1.522591
 55            250          -3.836034     -7.471306     -2.273617
 66            250           .081672      -10.49016      .446617 
 77            250           3.6869       -15.7479       3.736086
 88            250           5.229922     -32.00258      5.230743
 0             260           7.339996     -13.26355      7.377627
 11            260           6.637661     -12.91236      6.685567
 22            260           4.468354     -12.1061       4.562891
 33            260           .846154      -11.37459      1.099085
 44            260          -2.97025      -11.21897     -2.364526
 55            260          -3.147368     -12.03544     -2.619739
 66            260           .621589      -14.26621      .760281 
 77            260           4.135623     -19.00222      4.156658
 88            260           5.650808     -35.04119      5.651178
 0             270           7.348731     -14.40623      7.377627
 11            270           6.667683     -15.17699      6.695991
 22            270           4.568627     -17.80035      4.593724
 33            270           1.087107     -23.79861      1.101184
 44            270          -2.533931     -34.1613      -2.530946
 55            270          -2.679326     -24.29586     -2.649497
 66            270           .944017      -22.1781       .965128 
 77            270           4.36506      -24.84027      4.370272
 88            270           5.851485     -40.1192       5.851595
 0             280           7.089721     -4.550871      7.377627
 11            280           6.429751     -4.860473      6.740999
 22            280           4.399515     -5.853289      4.791058
 33            280           1.053482     -7.711327      1.595391
 44            280          -2.379939     -10.69675     -1.783021
 55            280          -2.482175     -14.9977      -2.245398
 66            280           1.016154     -20.18519      1.048964
 77            280           4.351932     -25.83463      4.35609 
 88            280           5.811273     -41.66798      5.811351
 0             290           6.546241     -.211255       7.377627
 11            290           5.903994     -.4175         6.81456 
 22            290           3.930464     -1.092492      5.118271
 33            290           .692313      -2.387293      2.430246
 44            290          -2.595096     -4.500777     -.433938 
 55            290          -2.655762     -7.61305      -1.452151
 66            290           .759605      -11.86342      .990744 
 77            290           4.036489     -17.91867      4.064087
 88            290           5.477115     -34.43524      5.477558
 0             300           5.679656      2.477727      7.377627
 11            300           5.048848      2.323209      6.906735
 22            300           3.109106      1.802541      5.515074
 33            300          -.074433       .76537        3.376036
 44            300          -3.301995     -.982532       1.021077
 55            300          -3.347281     -3.633833     -.477894 
 66            300           .051067      -7.425524      .765428 
 77            300           3.321329     -13.21296      3.416735
 88            300           4.761745     -29.67328      4.763309
 0             310           4.41696       4.31712       7.377627
 11            310           3.788795      4.192077      7.005415
 22            310           1.849881      3.757114      5.917664
 33            310          -1.359085      2.856388      4.251518
 44            310          -4.6653        1.290498      2.272636
 55            310          -4.75463      -1.144709      .425383 
 66            310          -1.279892     -4.723738      .341259 
 77            310           2.067125     -10.36494      2.30837 
 88            310           3.538038     -26.77238      3.54208 
 0             320           2.620315      5.609747      7.377627
 11            320           1.983837      5.499271      7.098247
 22            320           .003504       5.103859      6.27327 
 33            320          -3.339271      4.257596      4.953927
 44            320          -6.928478      2.749442      3.193656
 55            320          -7.167687      .364428       1.070413
 66            320          -3.48198      -3.180838     -.318499 
 77            320           .066082      -8.80743       .59538  
 88            320           1.612737     -25.21202      1.62175 
 0             330           .002859       6.499686      7.377627
 11            330          -.655659       6.392115      7.174302
 22            330          -2.732195      5.999995      6.545743
 33            330          -6.360445      5.143068      5.439897
 44            330          -10.55647      3.592033      3.755983
 55            330          -11.14428      1.119198      1.369723
 66            330          -7.019217     -2.547477     -1.221263
 77            330          -3.065071     -8.281743     -1.922839
 88            330          -1.37264      -24.73417     -1.352659
 0             340          -4.178214      7.062969      7.377627
 11            340          -4.881461      6.949274      7.22523 
 22            340          -7.150049      6.532887      6.715005
 33            340          -11.36207      5.616898      5.70311 
 44            340          -16.9116       3.948541      3.984022
 55            340          -18.39789      1.283278      1.329766
 66            340          -13.25776     -2.625154     -2.265076
 77            340          -8.371484     -8.555342     -5.45214 
 88            340          -6.372579     -25.08412     -6.314539
 0             350          -13.26355      7.339996      7.377627
 11            350          -14.11846      7.214043      7.245881
 22            350          -17.07976      6.755964      6.773883
 33            350          -23.82728      5.753939      5.758718
 44            350          -30.50929      3.931707      3.933269
 55            350          -27.24014      1.026068      1.032537
 66            350          -33.02452     -3.172537     -3.168046
 77            350          -23.03261     -9.305726     -9.125404
 88            350          -19.12923     -25.886       -18.29772
 0             360          -14.40623      7.348731      7.377627
 11            360          -14.87102      7.207663      7.23449 
 22            360          -16.12727      6.701896      6.724477
 33            360          -17.61018      5.611545      5.632179
 44            360          -18.18733      3.645655      3.674038
 55            360          -17.08384      .530086       .604672 
 66            360          -15.04746     -3.899982     -3.57871 
 77            360          -13.30785     -10.14157     -8.432031
 88            360          -12.52624     -26.70262     -12.36332