                   ****************************************
                     MINI-NUMERICAL ELECTROMAGNETICS CODE
                                   MININEC
                   ****************************************

ENVIRONMENT (+1 FOR FREE SPACE, -1 FOR GROUND PLANE): -1
 NUMBER OF MEDIA (0 FOR PERFECTLY CONDUCTING GROUND):  1
 RELATIVE DIELECTRIC CONSTANT, CONDUCTIVITY:  13 , .005

NO. OF GEO-OBJECTS: 2

WIRE NO. 1
            COORDINATES                                 END         NO. OF
   X             Y             Z          RADIUS     CONNECTION     SEGMENTS
 0             0             10                         0
-4.58993       0             7.35          .0025        0             92

WIRE NO. 2
            COORDINATES                                 END         NO. OF
   X             Y             Z          RADIUS     CONNECTION     SEGMENTS
 0             0             10                        -1
 4.58993       0             7.35          .0025        0             92

                  **** ANTENNA GEOMETRY ****

WIRE NO.  1 COORDINATES                                 CONNECTION PULSE
X             Y             Z             RADIUS        END1 END2  NO.
-.04989        0             9.971196      .0025         0    1   1
-.099781       0             9.942391      .0025         1    1   2
-.149672       0             9.913587      .0025         1    1   3
-.199562       0             9.884783      .0025         1    1   4
-.249453       0             9.855978      .0025         1    1   5
-.299343       0             9.827174      .0025         1    1   6
-.349234       0             9.79837       .0025         1    1   7
-.399124       0             9.769565      .0025         1    1   8
-.449015       0             9.740761      .0025         1    1   9
-.498905       0             9.711957      .0025         1    1  10
-.548796       0             9.683152      .0025         1    1  11
-.598687       0             9.654348      .0025         1    1  12
-.648577       0             9.625543      .0025         1    1  13
-.698468       0             9.596739      .0025         1    1  14
-.748358       0             9.567935      .0025         1    1  15
-.798249       0             9.53913       .0025         1    1  16
-.848139       0             9.510326      .0025         1    1  17
-.89803        0             9.481522      .0025         1    1  18
-.94792        0             9.452717      .0025         1    1  19
-.997811       0             9.423913      .0025         1    1  20
-1.047701      0             9.395109      .0025         1    1  21
-1.097592      0             9.366304      .0025         1    1  22
-1.147482      0             9.3375        .0025         1    1  23
-1.197373      0             9.308696      .0025         1    1  24
-1.247264      0             9.279891      .0025         1    1  25
-1.297154      0             9.251087      .0025         1    1  26
-1.347045      0             9.222283      .0025         1    1  27
-1.396935      0             9.193478      .0025         1    1  28
-1.446826      0             9.164674      .0025         1    1  29
-1.496716      0             9.13587       .0025         1    1  30
-1.546607      0             9.107065      .0025         1    1  31
-1.596497      0             9.078261      .0025         1    1  32
-1.646388      0             9.049457      .0025         1    1  33
-1.696278      0             9.020652      .0025         1    1  34
-1.746169      0             8.991848      .0025         1    1  35
-1.79606       0             8.963043      .0025         1    1  36
-1.84595       0             8.934239      .0025         1    1  37
-1.895841      0             8.905435      .0025         1    1  38
-1.945731      0             8.87663       .0025         1    1  39
-1.995622      0             8.847826      .0025         1    1  40
-2.045512      0             8.819022      .0025         1    1  41
-2.095403      0             8.790217      .0025         1    1  42
-2.145293      0             8.761413      .0025         1    1  43
-2.195184      0             8.732609      .0025         1    1  44
-2.245074      0             8.703804      .0025         1    1  45
-2.294965      0             8.675         .0025         1    1  46
-2.344856      0             8.646196      .0025         1    1  47
-2.394746      0             8.617391      .0025         1    1  48
-2.444637      0             8.588587      .0025         1    1  49
-2.494527      0             8.559783      .0025         1    1  50
-2.544418      0             8.530978      .0025         1    1  51
-2.594308      0             8.502174      .0025         1    1  52
-2.644199      0             8.47337       .0025         1    1  53
-2.694089      0             8.444565      .0025         1    1  54
-2.74398       0             8.415761      .0025         1    1  55
-2.79387       0             8.386957      .0025         1    1  56
-2.843761      0             8.358152      .0025         1    1  57
-2.893652      0             8.329348      .0025         1    1  58
-2.943542      0             8.300543      .0025         1    1  59
-2.993433      0             8.271739      .0025         1    1  60
-3.043323      0             8.242935      .0025         1    1  61
-3.093214      0             8.21413       .0025         1    1  62
-3.143104      0             8.185326      .0025         1    1  63
-3.192995      0             8.156522      .0025         1    1  64
-3.242885      0             8.127717      .0025         1    1  65
-3.292776      0             8.098913      .0025         1    1  66
-3.342666      0             8.070109      .0025         1    1  67
-3.392557      0             8.041304      .0025         1    1  68
-3.442447      0             8.0125        .0025         1    1  69
-3.492338      0             7.983696      .0025         1    1  70
-3.542229      0             7.954891      .0025         1    1  71
-3.592119      0             7.926087      .0025         1    1  72
-3.64201       0             7.897283      .0025         1    1  73
-3.6919        0             7.868478      .0025         1    1  74
-3.741791      0             7.839674      .0025         1    1  75
-3.791681      0             7.81087       .0025         1    1  76
-3.841572      0             7.782065      .0025         1    1  77
-3.891462      0             7.753261      .0025         1    1  78
-3.941353      0             7.724457      .0025         1    1  79
-3.991243      0             7.695652      .0025         1    1  80
-4.041134      0             7.666848      .0025         1    1  81
-4.091025      0             7.638043      .0025         1    1  82
-4.140915      0             7.609239      .0025         1    1  83
-4.190806      0             7.580435      .0025         1    1  84
-4.240696      0             7.55163       .0025         1    1  85
-4.290587      0             7.522826      .0025         1    1  86
-4.340477      0             7.494022      .0025         1    1  87
-4.390368      0             7.465217      .0025         1    1  88
-4.440258      0             7.436413      .0025         1    1  89
-4.490149      0             7.407609      .0025         1    1  90
-4.540039      0             7.378804      .0025         1    0  91

WIRE NO.  2 COORDINATES                                 CONNECTION PULSE
X             Y             Z             RADIUS        END1 END2  NO.
 0             0             10            .0025        -1    2  92
 .04989        0             9.971196      .0025         2    2  93
 .099781       0             9.942391      .0025         2    2  94
 .149672       0             9.913587      .0025         2    2  95
 .199562       0             9.884783      .0025         2    2  96
 .249453       0             9.855978      .0025         2    2  97
 .299343       0             9.827174      .0025         2    2  98
 .349234       0             9.79837       .0025         2    2  99
 .399124       0             9.769565      .0025         2    2 100
 .449015       0             9.740761      .0025         2    2 101
 .498905       0             9.711957      .0025         2    2 102
 .548796       0             9.683152      .0025         2    2 103
 .598687       0             9.654348      .0025         2    2 104
 .648577       0             9.625543      .0025         2    2 105
 .698468       0             9.596739      .0025         2    2 106
 .748358       0             9.567935      .0025         2    2 107
 .798249       0             9.53913       .0025         2    2 108
 .848139       0             9.510326      .0025         2    2 109
 .89803        0             9.481522      .0025         2    2 110
 .94792        0             9.452717      .0025         2    2 111
 .997811       0             9.423913      .0025         2    2 112
 1.047701      0             9.395109      .0025         2    2 113
 1.097592      0             9.366304      .0025         2    2 114
 1.147482      0             9.3375        .0025         2    2 115
 1.197373      0             9.308696      .0025         2    2 116
 1.247264      0             9.279891      .0025         2    2 117
 1.297154      0             9.251087      .0025         2    2 118
 1.347045      0             9.222283      .0025         2    2 119
 1.396935      0             9.193478      .0025         2    2 120
 1.446826      0             9.164674      .0025         2    2 121
 1.496716      0             9.13587       .0025         2    2 122
 1.546607      0             9.107065      .0025         2    2 123
 1.596497      0             9.078261      .0025         2    2 124
 1.646388      0             9.049457      .0025         2    2 125
 1.696278      0             9.020652      .0025         2    2 126
 1.746169      0             8.991848      .0025         2    2 127
 1.79606       0             8.963043      .0025         2    2 128
 1.84595       0             8.934239      .0025         2    2 129
 1.895841      0             8.905435      .0025         2    2 130
 1.945731      0             8.87663       .0025         2    2 131
 1.995622      0             8.847826      .0025         2    2 132
 2.045512      0             8.819022      .0025         2    2 133
 2.095403      0             8.790217      .0025         2    2 134
 2.145293      0             8.761413      .0025         2    2 135
 2.195184      0             8.732609      .0025         2    2 136
 2.245074      0             8.703804      .0025         2    2 137
 2.294965      0             8.675         .0025         2    2 138
 2.344856      0             8.646196      .0025         2    2 139
 2.394746      0             8.617391      .0025         2    2 140
 2.444637      0             8.588587      .0025         2    2 141
 2.494527      0             8.559783      .0025         2    2 142
 2.544418      0             8.530978      .0025         2    2 143
 2.594308      0             8.502174      .0025         2    2 144
 2.644199      0             8.47337       .0025         2    2 145
 2.694089      0             8.444565      .0025         2    2 146
 2.74398       0             8.415761      .0025         2    2 147
 2.79387       0             8.386957      .0025         2    2 148
 2.843761      0             8.358152      .0025         2    2 149
 2.893652      0             8.329348      .0025         2    2 150
 2.943542      0             8.300543      .0025         2    2 151
 2.993433      0             8.271739      .0025         2    2 152
 3.043323      0             8.242935      .0025         2    2 153
 3.093214      0             8.21413       .0025         2    2 154
 3.143104      0             8.185326      .0025         2    2 155
 3.192995      0             8.156522      .0025         2    2 156
 3.242885      0             8.127717      .0025         2    2 157
 3.292776      0             8.098913      .0025         2    2 158
 3.342666      0             8.070109      .0025         2    2 159
 3.392557      0             8.041304      .0025         2    2 160
 3.442447      0             8.0125        .0025         2    2 161
 3.492338      0             7.983696      .0025         2    2 162
 3.542229      0             7.954891      .0025         2    2 163
 3.592119      0             7.926087      .0025         2    2 164
 3.64201       0             7.897283      .0025         2    2 165
 3.6919        0             7.868478      .0025         2    2 166
 3.741791      0             7.839674      .0025         2    2 167
 3.791681      0             7.81087       .0025         2    2 168
 3.841572      0             7.782065      .0025         2    2 169
 3.891462      0             7.753261      .0025         2    2 170
 3.941353      0             7.724457      .0025         2    2 171
 3.991243      0             7.695652      .0025         2    2 172
 4.041134      0             7.666848      .0025         2    2 173
 4.091025      0             7.638043      .0025         2    2 174
 4.140915      0             7.609239      .0025         2    2 175
 4.190806      0             7.580435      .0025         2    2 176
 4.240696      0             7.55163       .0025         2    2 177
 4.290587      0             7.522826      .0025         2    2 178
 4.340477      0             7.494022      .0025         2    2 179
 4.390368      0             7.465217      .0025         2    2 180
 4.440258      0             7.436413      .0025         2    2 181
 4.490149      0             7.407609      .0025         2    2 182
 4.540039      0             7.378804      .0025         2    0 183

NO. OF SOURCES :  1
PULSE NO., VOLTAGE MAGNITUDE, PHASE (DEGREES): 92 , 1 , 0
NUMBER OF LOADS 0

FREQUENCY (MHZ): 13.8
    WAVE LENGTH =  21.72464  METERS

********************    SOURCE DATA     ********************
PULSE 92      VOLTAGE = ( 1 , 0 J)
              CURRENT = ( 1.370053E-02 ,  3.271208E-03 J)
              IMPEDANCE = ( 69.05326 , -16.48751 J)
              POWER =  6.850263E-03  WATTS

********************    CURRENT DATA    ********************

WIRE NO.  1 :
PULSE         REAL          IMAGINARY     MAGNITUDE     PHASE
 NO.          (AMPS)        (AMPS)        (AMPS)        (DEGREES)
J             -1.370053E-02 -3.271208E-03  1.408564E-02 -166.5712 
 1            -1.369912E-02 -3.221929E-03  1.407291E-02 -166.765  
 2            -1.369397E-02 -3.186880E-03  1.405991E-02 -166.8992 
 3            -1.368514E-02 -3.155000E-03  1.404411E-02 -167.0177 
 4            -1.367265E-02 -3.124678E-03  1.402516E-02 -167.127  
 5            -1.365651E-02 -3.095214E-03  1.400288E-02 -167.2298 
 6            -1.363671E-02 -3.066240E-03  1.397718E-02 -167.3277 
 7            -1.361325E-02 -3.037535E-03  1.394802E-02 -167.4216 
 8            -1.358616E-02 -3.008954E-03  1.391537E-02 -167.5122 
 9            -1.355542E-02 -2.980399E-03  1.387920E-02 -167.5998 
 10           -1.352104E-02 -2.951796E-03  1.383949E-02 -167.6849 
 11           -1.348303E-02 -2.923091E-03  1.379625E-02 -167.7677 
 12           -1.344140E-02 -2.894245E-03  1.374947E-02 -167.8484 
 13           -1.339615E-02 -2.865224E-03  1.369913E-02 -167.9272 
 14           -1.334728E-02 -2.836006E-03  1.364525E-02 -168.0043 
 15           -1.329482E-02 -2.806571E-03  1.358783E-02 -168.0797 
 16           -1.323877E-02 -2.776904E-03  1.352687E-02 -168.1536 
 17           -1.317913E-02 -2.746993E-03  1.346237E-02 -168.2261 
 18           -1.311593E-02 -2.716831E-03  1.339436E-02 -168.2973 
 19           -1.304917E-02 -2.686409E-03  1.332282E-02 -168.3671 
 20           -1.297887E-02 -2.655724E-03  1.324779E-02 -168.4358 
 21           -1.290503E-02 -2.624772E-03  1.316926E-02 -168.5034 
 22           -1.282769E-02 -2.593552E-03  1.308725E-02 -168.5698 
 23           -1.274685E-02 -2.562061E-03  1.300178E-02 -168.6352 
 24           -1.266252E-02 -2.530301E-03  1.291286E-02 -168.6997 
 25           -1.257474E-02 -2.498273E-03  1.282050E-02 -168.7631 
 26           -1.248351E-02 -2.465977E-03  1.272474E-02 -168.8257 
 27           -1.238885E-02 -2.433417E-03  1.262557E-02 -168.8874 
 28           -1.229079E-02 -2.400594E-03  1.252303E-02 -168.9483 
 29           -1.218935E-02 -2.367514E-03  1.241714E-02 -169.0084 
 30           -1.208454E-02 -2.334178E-03  1.230791E-02 -169.0677 
 31           -1.197640E-02 -2.300592E-03  1.219536E-02 -169.1263 
 32           -1.186494E-02 -2.266760E-03  1.207953E-02 -169.1842 
 33           -1.175019E-02 -2.232688E-03  1.196043E-02 -169.2413 
 34           -1.163218E-02 -2.198379E-03  1.183809E-02 -169.2978 
 35           -1.151092E-02 -2.163840E-03  1.171254E-02 -169.3537 
 36           -1.138645E-02 -2.129077E-03  1.158379E-02 -169.4089 
 37           -1.125879E-02 -2.094095E-03  1.145188E-02 -169.4636 
 38           -1.112797E-02 -2.058900E-03  1.131684E-02 -169.5177 
 39           -1.099402E-02 -2.023500E-03  1.117869E-02 -169.5712 
 40           -1.085697E-02 -1.987899E-03  1.103746E-02 -169.6241 
 41           -1.071685E-02 -1.952106E-03  1.089319E-02 -169.6766 
 42           -1.057368E-02 -1.916126E-03  1.074589E-02 -169.7285 
 43           -1.042750E-02 -1.879967E-03  1.059561E-02 -169.78   
 44           -1.027834E-02 -1.843636E-03  1.044237E-02 -169.8309 
 45           -1.012622E-02 -1.807139E-03  1.028621E-02 -169.8814 
 46           -9.971196E-03 -1.770484E-03  1.012716E-02 -169.9315 
 47           -9.813282E-03 -1.733678E-03  9.965247E-03 -169.9811 
 48           -9.652516E-03 -1.696728E-03  9.800508E-03 -170.0303 
 49           -9.488931E-03 -1.659642E-03  9.632976E-03 -170.0791 
 50           -9.322561E-03 -1.622428E-03  9.462685E-03 -170.1276 
 51           -9.153440E-03 -1.585092E-03  9.289670E-03 -170.1756 
 52           -8.981601E-03 -1.547642E-03  9.113964E-03 -170.2232 
 53           -8.807079E-03 -1.510085E-03  8.935602E-03 -170.2705 
 54           -8.629908E-03 -1.472429E-03  8.754619E-03 -170.3175 
 55           -8.450123E-03 -1.434682E-03  8.571049E-03 -170.3641 
 56           -8.267758E-03 -1.396850E-03  8.384928E-03 -170.4104 
 57           -8.082847E-03 -1.358941E-03  8.196288E-03 -170.4563 
 58           -7.895425E-03 -1.320963E-03  8.005166E-03 -170.502  
 59           -7.705525E-03 -1.282922E-03  7.811594E-03 -170.5473 
 60           -7.513181E-03 -1.244825E-03  7.615608E-03 -170.5924 
 61           -7.318426E-03 -1.206681E-03  7.417239E-03 -170.6372 
 62           -7.121292E-03 -1.168495E-03  7.216522E-03 -170.6817 
 63           -6.921812E-03 -1.130274E-03  7.013487E-03 -170.7259 
 64           -6.720014E-03 -1.092026E-03  6.808165E-03 -170.7699 
 65           -6.515931E-03 -1.053755E-03  6.600587E-03 -170.8137 
 66           -6.309589E-03 -1.015469E-03  6.390781E-03 -170.8572 
 67           -6.101015E-03 -9.771739E-04  6.178774E-03 -170.9005 
 68           -5.890234E-03 -9.388744E-04  5.964591E-03 -170.9435 
 69           -5.677270E-03 -9.005762E-04  5.748255E-03 -170.9864 
 70           -5.462142E-03 -8.622841E-04  5.529785E-03 -171.029  
 71           -5.244867E-03 -8.240026E-04  5.309200E-03 -171.0714 
 72           -5.025458E-03 -7.857353E-04  5.086512E-03 -171.1137 
 73           -4.803924E-03 -7.474857E-04  4.861731E-03 -171.1558 
 74           -4.580270E-03 -7.092560E-04  4.634859E-03 -171.1976 
 75           -4.354492E-03 -6.710479E-04  4.405895E-03 -171.2394 
 76           -4.126581E-03 -6.328618E-04  4.174828E-03 -171.2809 
 77           -3.896517E-03 -5.946969E-04  3.941638E-03 -171.3223 
 78           -3.664270E-03 -5.565507E-04  3.706295E-03 -171.3636 
 79           -3.429793E-03 -5.184190E-04  3.468752E-03 -171.4047 
 80           -3.193025E-03 -4.802946E-04  3.228946E-03 -171.4457 
 81           -2.953879E-03 -4.421677E-04  2.986790E-03 -171.4866 
 82           -2.712239E-03 -4.040238E-04  2.742166E-03 -171.5273 
 83           -2.467947E-03 -3.658432E-04  2.494916E-03 -171.568  
 84           -2.220791E-03 -3.275984E-04  2.244823E-03 -171.6086 
 85           -1.970477E-03 -2.892506E-04  1.991594E-03 -171.6491 
 86           -1.716595E-03 -2.507452E-04  1.734812E-03 -171.6895 
 87           -1.458547E-03 -2.120014E-04  1.473874E-03 -171.7299 
 88           -1.195419E-03 -1.728949E-04  1.207857E-03 -171.7703 
 89           -9.257053E-04 -1.332187E-04  9.352419E-04 -171.8108 
 90           -6.465883E-04 -9.258291E-05  6.531830E-04 -171.8514 
 91           -3.517248E-04 -5.010390E-05  3.552755E-04 -171.8926 
E              0             0             0             0
WIRE NO.  2 :
PULSE         REAL          IMAGINARY     MAGNITUDE     PHASE
 NO.          (AMPS)        (AMPS)        (AMPS)        (DEGREES)
J              1.370053E-02  3.271208E-03  1.408564E-02  13.42882 
 93            1.369912E-02  3.221929E-03  1.407291E-02  13.23499 
 94            1.369397E-02  3.186880E-03  1.405991E-02  13.10077 
 95            1.368514E-02  3.155000E-03  1.404411E-02  12.98226 
 96            1.367265E-02  3.124678E-03  1.402516E-02  12.87301 
 97            1.365651E-02  3.095214E-03  1.400288E-02  12.7702  
 98            1.363671E-02  3.066240E-03  1.397718E-02  12.67231 
 99            1.361325E-02  3.037535E-03  1.394802E-02  12.5784  
 100           1.358616E-02  3.008954E-03  1.391537E-02  12.48784 
 101           1.355542E-02  2.980399E-03  1.387920E-02  12.40019 
 102           1.352104E-02  2.951796E-03  1.383949E-02  12.3151  
 103           1.348303E-02  2.923091E-03  1.379625E-02  12.2323  
 104           1.344140E-02  2.894245E-03  1.374947E-02  12.15158 
 105           1.339615E-02  2.865224E-03  1.369913E-02  12.07276 
 106           1.334728E-02  2.836006E-03  1.364525E-02  11.9957  
 107           1.329482E-02  2.806571E-03  1.358783E-02  11.92027 
 108           1.323877E-02  2.776904E-03  1.352687E-02  11.84636 
 109           1.317913E-02  2.746993E-03  1.346237E-02  11.77387 
 110           1.311593E-02  2.716831E-03  1.339436E-02  11.70273 
 111           1.304917E-02  2.686409E-03  1.332282E-02  11.63286 
 112           1.297887E-02  2.655724E-03  1.324779E-02  11.56418 
 113           1.290503E-02  2.624772E-03  1.316926E-02  11.49665 
 114           1.282769E-02  2.593552E-03  1.308725E-02  11.4302  
 115           1.274685E-02  2.562061E-03  1.300178E-02  11.36478 
 116           1.266252E-02  2.530301E-03  1.291286E-02  11.30035 
 117           1.257474E-02  2.498273E-03  1.282050E-02  11.23686 
 118           1.248351E-02  2.465977E-03  1.272474E-02  11.17428 
 119           1.238885E-02  2.433417E-03  1.262557E-02  11.11256 
 120           1.229079E-02  2.400594E-03  1.252303E-02  11.05168 
 121           1.218935E-02  2.367514E-03  1.241714E-02  10.99159 
 122           1.208454E-02  2.334178E-03  1.230791E-02  10.93228 
 123           1.197640E-02  2.300592E-03  1.219536E-02  10.87371 
 124           1.186494E-02  2.266760E-03  1.207953E-02  10.81585 
 125           1.175019E-02  2.232688E-03  1.196043E-02  10.75868 
 126           1.163218E-02  2.198379E-03  1.183809E-02  10.70217 
 127           1.151092E-02  2.163840E-03  1.171254E-02  10.6463  
 128           1.138645E-02  2.129077E-03  1.158379E-02  10.59106 
 129           1.125879E-02  2.094095E-03  1.145188E-02  10.53641 
 130           1.112797E-02  2.058900E-03  1.131684E-02  10.48234 
 131           1.099402E-02  2.023500E-03  1.117869E-02  10.42883 
 132           1.085697E-02  1.987899E-03  1.103746E-02  10.37586 
 133           1.071685E-02  1.952106E-03  1.089319E-02  10.32342 
 134           1.057368E-02  1.916126E-03  1.074589E-02  10.27148 
 135           1.042750E-02  1.879967E-03  1.059561E-02  10.22003 
 136           1.027834E-02  1.843636E-03  1.044237E-02  10.16906 
 137           1.012622E-02  1.807139E-03  1.028621E-02  10.11855 
 138           9.971196E-03  1.770484E-03  1.012716E-02  10.06849 
 139           9.813282E-03  1.733678E-03  9.965247E-03  10.01886 
 140           9.652516E-03  1.696728E-03  9.800508E-03  9.969654 
 141           9.488931E-03  1.659642E-03  9.632976E-03  9.920853 
 142           9.322561E-03  1.622428E-03  9.462685E-03  9.872446 
 143           9.153440E-03  1.585092E-03  9.289670E-03  9.824421 
 144           8.981601E-03  1.547642E-03  9.113964E-03  9.776768 
 145           8.807079E-03  1.510085E-03  8.935602E-03  9.729475 
 146           8.629908E-03  1.472429E-03  8.754619E-03  9.682531 
 147           8.450123E-03  1.434682E-03  8.571049E-03  9.635925 
 148           8.267758E-03  1.396850E-03  8.384928E-03  9.589647 
 149           8.082847E-03  1.358941E-03  8.196288E-03  9.543687 
 150           7.895425E-03  1.320963E-03  8.005166E-03  9.498035 
 151           7.705525E-03  1.282922E-03  7.811594E-03  9.452682 
 152           7.513181E-03  1.244825E-03  7.615608E-03  9.407618 
 153           7.318426E-03  1.206681E-03  7.417239E-03  9.362835 
 154           7.121292E-03  1.168495E-03  7.216522E-03  9.318323 
 155           6.921812E-03  1.130274E-03  7.013487E-03  9.274074 
 156           6.720014E-03  1.092026E-03  6.808165E-03  9.230079 
 157           6.515931E-03  1.053755E-03  6.600587E-03  9.186331 
 158           6.309589E-03  1.015469E-03  6.390781E-03  9.14282  
 159           6.101015E-03  9.771739E-04  6.178774E-03  9.099539 
 160           5.890234E-03  9.388744E-04  5.964591E-03  9.05648  
 161           5.677270E-03  9.005762E-04  5.748255E-03  9.013635 
 162           5.462142E-03  8.622841E-04  5.529785E-03  8.970996 
 163           5.244867E-03  8.240026E-04  5.309200E-03  8.928556 
 164           5.025458E-03  7.857353E-04  5.086512E-03  8.886308 
 165           4.803924E-03  7.474857E-04  4.861731E-03  8.844243 
 166           4.580270E-03  7.092560E-04  4.634859E-03  8.802354 
 167           4.354492E-03  6.710479E-04  4.405895E-03  8.760634 
 168           4.126581E-03  6.328618E-04  4.174828E-03  8.719075 
 169           3.896517E-03  5.946969E-04  3.941638E-03  8.67767  
 170           3.664270E-03  5.565507E-04  3.706295E-03  8.63641  
 171           3.429793E-03  5.184190E-04  3.468752E-03  8.595288 
 172           3.193025E-03  4.802946E-04  3.228946E-03  8.554295 
 173           2.953879E-03  4.421677E-04  2.986790E-03  8.513422 
 174           2.712239E-03  4.040238E-04  2.742166E-03  8.472661 
 175           2.467947E-03  3.658432E-04  2.494916E-03  8.432    
 176           2.220791E-03  3.275984E-04  2.244823E-03  8.391428 
 177           1.970477E-03  2.892506E-04  1.991594E-03  8.350931 
 178           1.716595E-03  2.507452E-04  1.734812E-03  8.310493 
 179           1.458547E-03  2.120014E-04  1.473874E-03  8.270091 
 180           1.195419E-03  1.728949E-04  1.207857E-03  8.229691 
 181           9.257053E-04  1.332187E-04  9.352419E-04  8.189237 
 182           6.465883E-04  9.258291E-05  6.531830E-04  8.148611 
 183           3.517248E-04  5.010390E-05  3.552755E-04  8.107353 
E              0             0             0             0

********************     FAR FIELD      ********************

ZENITH ANGLE : INITIAL,INCREMENT,NUMBER: 0 , 5 , 19
AZIMUTH ANGLE: INITIAL,INCREMENT,NUMBER: 0 , 5 , 73

********************    PATTERN DATA    ********************
ZENITH        AZIMUTH       VERTICAL      HORIZONTAL    TOTAL
 ANGLE         ANGLE        PATTERN (DB)  PATTERN (DB)  PATTERN (DB)
 0             0            -.985889      -999          -.985889 
 5             0            -.932788      -999          -.932788 
 10            0            -.783075      -999          -.783075 
 15            0            -.564005      -999          -.564005 
 20            0            -.316331      -999          -.316331 
 25            0            -.088522      -999          -.088522 
 30            0             .068951      -999           .068951 
 35            0             .107877      -999           .107877 
 40            0            -.015456      -999          -.015456 
 45            0            -.339641      -999          -.339641 
 50            0            -.898396      -999          -.898396 
 55            0            -1.720959     -999          -1.720959
 60            0            -2.832336     -999          -2.832336
 65            0            -4.254412     -999          -4.254412
 70            0            -6.013446     -999          -6.013446
 75            0            -8.175493     -999          -8.175493
 80            0            -10.99547     -999          -10.99547
 85            0            -15.67806     -999          -15.67806
 90            0            -999          -999          -999     
 0             5            -1.019004     -22.17997     -.985889 
 5             5            -.965794      -22.06224     -.932185 
 10            5            -.815757      -21.71821     -.780619 
 15            5            -.596169      -21.17578     -.558331 
 20            5            -.34781       -20.48086     -.305894 
 25            5            -.119187      -19.69265     -.071537 
 30            5             .039195      -18.87562      .094598 
 35            5             .079081      -18.09222      .144751 
 40            5            -.043283      -17.39916      .035827 
 45            5            -.366534      -16.84739     -.26996  
 50            5            -.924438      -16.48481     -.805374 
 55            5            -1.746282     -16.36099     -1.59874 
 60            5            -2.857121     -16.53394     -2.674751
 65            5            -4.27888      -17.08136     -4.056862
 70            5            -6.037835     -18.1226      -5.777097
 75            5            -8.200011     -19.87116     -7.914059
 80            5            -11.02023     -22.7954      -10.74083
 85            5            -15.70303     -28.3756      -15.47445
 90            5            -999          -999          -999     
 0             10           -1.118859     -16.19248     -.985889 
 5             10           -1.065323     -16.07443     -.930392 
 10            10           -.914325      -15.72945     -.77333  
 15            10           -.693198      -15.18549     -.541511 
 20            10           -.442808      -14.48858     -.275008 
 25            10           -.211763      -13.69803     -.02139  
 30            10           -.050686      -12.87841      .170077 
 35            10           -.007952      -12.09228      .252812 
 40            10           -.127441      -11.39644      .185279 
 45            10           -.44792       -10.84189     -.068368 
 50            10           -1.003297     -10.47663     -.538763 
 55            10           -1.823007     -10.35027     -1.25255 
 60            10           -2.932248     -10.52089     -2.234697
 65            10           -4.353066     -11.06624     -3.513925
 70            10           -6.111786     -12.10572     -5.137341
 75            10           -8.274339     -13.85287     -7.213152
 80            10           -11.09526     -16.77608     -10.05605
 85            10           -15.7787      -22.35566     -14.91532
 90            10           -999          -999          -999     
 0             15           -1.287013     -12.72596     -.985889 
 5             15           -1.232943     -12.60738     -.927467 
 10            15           -1.080377     -12.26083     -.761447 
 15            15           -.856738      -11.71439     -.514146 
 20            15           -.603031      -11.01423     -.224919 
 25            15           -.368036      -10.21986      .059572 
 30            15           -.202562      -9.396016      .291199 
 35            15           -.155182      -8.60544       .424828 
 40            15           -.26998       -7.905049      .420713 
 45            15           -.585941      -7.345982      .245001 
 50            15           -1.137199     -6.976342     -.131196 
 55            15           -1.953427     -6.845847     -.734025 
 60            15           -3.060058     -7.012668     -1.591107
 65            15           -4.479336     -7.554645     -2.739986
 70            15           -6.237666     -8.591264     -4.246641
 75            15           -8.400823     -10.33611     -6.251248
 80            15           -11.22289     -13.25764     -9.111873
 85            15           -15.90735     -18.83619     -14.11912
 90            15           -999          -999          -999     
 0             20           -1.526172     -10.30485     -.985889 
 5             20           -1.471378     -10.18555     -.923498 
 10            20           -1.316684     -9.836878     -.745356 
 15            20           -1.089637     -9.287061     -.477202 
 20            20           -.831432      -8.582504     -.157602 
 25            20           -.59108       -7.782941      .167686 
 30            20           -.419646      -6.953383      .451563 
 35            20           -.36597       -6.156774      .650073 
 40            20           -.474414      -5.450223      .724721 
 45            20           -.784254      -4.885035      .642691 
 50            20           -1.329932     -4.509465      .375299 
 55            20           -2.141442     -4.373369     -.105277 
 60            20           -3.244535     -4.53505      -.831733 
 65            20           -4.661717     -5.072464     -1.851937
 70            20           -6.4195       -6.105202     -3.249208
 75            20           -8.583454     -7.846937     -5.189301
 80            20           -11.40703     -10.76619     -8.064505
 85            20           -16.09287     -16.34336     -13.20601
 90            20           -999          -999          -999     
 0             25           -1.840374     -8.466923     -.985889 
 5             25           -1.784688     -8.346723     -.918609 
 10            25           -1.62737      -7.995441     -.725576 
 15            25           -1.396124     -7.441469     -.431962 
 20            25           -1.132377     -6.731485     -.075642 
 25            25           -.885429      -5.925538      .298279 
 30            25           -.706659      -5.08894       .643275 
 35            25           -.645236      -4.284908      .915851 
 40            25           -.745866      -3.57078       1.077725
 45            25           -1.04818      -2.998066      1.095702
 50            25           -1.586997     -2.615206      .939557 
 55            25           -2.392703     -2.472228      .578017 
 60            25           -3.491437     -2.627592     -.027771 
 65            25           -4.906026     -3.159401     -.935193 
 70            25           -6.663111     -4.18737      -2.240864
 75            25           -8.828009     -5.925282     -4.128215
 80            25           -11.65341     -8.841746     -7.013609
 85            25           -16.3409      -14.41721     -12.2631 
 90            25           -999          -999          -999     
 0             30           -2.235276     -7.006488     -.985889 
 5             30           -2.178556     -6.885255     -.91295  
 10            30           -2.018199     -6.530946     -.702739 
 15            30           -1.782091     -5.972162     -.379966 
 20            30           -1.51193      -5.255897      .017929 
 25            30           -1.257351     -4.442563      .446037 
 30            30           -1.070098     -3.597827      .857701 
 35            30           -.999724      -2.785214      1.208949
 40            30           -1.091326     -2.062333      1.460552
 45            30           -1.384948     -1.480927      1.577628
 50            30           -1.91584      -1.089649      1.527172
 55            30           -2.71484      -.938727       1.273687
 60            30           -3.808528     -1.086802      .772448 
 65            30           -5.2201       -1.612144     -.041455 
 70            30           -6.976344     -2.634613     -1.273809
 75            30           -9.142285     -4.368115     -3.119467
 80            30           -11.96974     -7.281358     -6.011116
 85            30           -16.65908     -12.85486     -11.3428 
 90            30           -999          -999          -999     
 0             35           -2.718598     -5.814063     -.985889 
 5             35           -2.660734     -5.691686     -.906695 
 10            35           -2.497017     -5.334029     -.67757  
 15            35           -2.255531     -4.769924     -.322947 
 20            35           -1.978281     -4.046717      .119797 
 25            35           -1.715272     -3.225223      .605347 
 30            35           -1.518655     -2.371499      1.086124
 35            35           -1.438403     -1.549418      1.516744
 40            35           -1.520048     -.816881       1.856051
 45            35           -1.804086     -.225891       2.066609
 50            35           -2.326241      .174664       2.112098
 55            35           -3.117842      .33434        1.952896
 60            35           -4.205953      .194293       1.539435
 65            35           -5.614171     -.323926       .801402 
 70            35           -7.369444     -1.340339     -.372939 
 75            35           -9.536477     -3.068986     -2.185661
 80            35           -12.36613     -5.978683     -5.080515
 85            35           -17.05745     -11.55002     -10.47332
 90            35           -999          -999          -999     
 0             40           -3.300809     -4.824539     -.985889 
 5             40           -3.241726     -4.700944     -.900035 
 10            40           -3.074428     -4.339719     -.650856 
 15            40           -2.827214     -3.769947     -.262751 
 20            40           -2.542417     -3.039349      .22652  
 25            40           -2.27044      -2.209172      .770602 
 30            40           -2.063864     -1.345892      1.320242
 35            40           -1.973115     -.513747       1.827882
 40            40           -2.044185      .229047       2.249799
 45            40           -2.318046      .830215       2.545625
 50            40           -2.830923      1.240616      2.67577 
 55            40           -3.614662      1.40958       2.597078
 60            40           -4.696836      1.27805       2.256332
 65            40           -6.101463      .767385       1.579574
 70            40           -7.855657     -.242607       .451331 
 75            40           -10.02378     -1.966107     -1.335032
 80            40           -12.85568     -4.872045     -4.230883
 85            40           -17.54904     -10.4411      -9.66877 
 90            40           -999          -295.8811     -295.8473
 0             45           -3.996188     -3.996188     -.985889 
 5             45           -3.935848     -3.871338     -.893174 
 10            45           -3.764858     -3.506434     -.623424 
 15            45           -3.511741     -2.93082      -.201275 
 20            45           -3.219169     -2.192609      .334672 
 25            45           -2.937958     -1.353493      .936436 
 30            45           -2.721137     -.48038        1.552482
 35            45           -2.619594      .362115       2.132579
 40            45           -2.679796      1.115452      2.630149
 45            45           -2.943202      1.727075      3.001917
 50            45           -3.446548      2.147589      3.205398
 55            45           -4.222204      2.326087      3.194654
 60            45           -5.298263      2.203298      2.913881
 65            45           -6.699167      1.700383      2.286765
 70            45           -8.452199      .696979       1.19552 
 75            45           -10.62137     -1.021242     -.569403 
 80            45           -13.4555      -3.923325     -3.464724
 85            45           -18.15088     -9.49003      -8.935796
 90            45           -999          -999          -999     
 0             50           -4.824539     -3.300809     -.985889 
 5             50           -4.762942     -3.174703     -.88632  
 10            50           -4.588259     -2.806121     -.596111 
 15            50           -4.329243     -2.22467      -.140401 
 20            50           -4.028906     -1.478853      .440957 
 25            50           -3.738477     -.630814       1.097886
 30            50           -3.511437      .25211        1.776165
 35            50           -3.399133      1.104924      2.422656
 40            50           -3.448505      1.868768      2.987941
 45            50           -3.701498      2.490805      3.426103
 50            50           -4.195348      2.921388      3.692285
 55            50           -4.962949      3.109377      3.738474
 60            50           -6.032899      2.995286      3.507113
 65            50           -7.430063      2.500081      2.920405
 70            50           -9.181885      1.503229      1.859151
 75            50           -11.35203     -.209742       .111901 
 80            50           -14.1883      -3.107992     -2.781895
 85            50           -18.8856      -8.672364     -8.277396
 90            50           -999          -298.9366     -298.7102
 0             55           -5.814063     -2.718598     -.985889 
 5             55           -5.751247     -2.591274     -.879681 
 10            55           -5.572986     -2.219127     -.569741 
 15            55           -5.308253     -1.632019     -.081938 
 20            55           -5.000395     -.878837       .5423   
 25            55           -4.701044     -.022159       1.250494
 30            55           -4.464118      .870254       1.985549
 35            55           -4.341413      1.733045      2.691427
 40            55           -4.380321      2.507043      3.31608 
 45            55           -4.623255      3.139139      3.811343
 50            55           -5.107934      3.579445      4.130509
 55            55           -5.867748      3.776594      4.224085
 60            55           -6.931783      3.670896      4.033362
 65            55           -8.325303      3.183129      3.479634
 70            55           -10.07591      2.192597      2.442839
 75            55           -12.24693      .484689       .710266 
 80            55           -15.08518     -2.409865     -2.18142 
 85            55           -19.78428     -7.971987     -7.694893
 90            55           -999          -297.2047     -296.9008
 0             60           -7.006488     -2.235276     -.985889 
 5             60           -6.942529     -2.106809     -.873459 
 10            60           -6.760911     -1.731318     -.545099 
 15            60           -6.490818     -1.138905     -.027577 
 20            60           -6.175911     -.37882        .635912 
 25            60           -5.868203      .485949       1.390356
 30            60           -5.622023      1.387247      2.175804
 35            60           -5.489586      2.259374      2.933508
 40            60           -5.518709      3.042869      3.609116
 45            60           -5.752239      3.684369      4.152643
 50            60           -6.228343      4.133761      4.515989
 55            60           -6.980874      4.339469      4.64864 
 60            60           -8.039365      4.241609      4.491154
 65            60           -9.429452      3.760787      3.964279
 70            60           -11.17888      2.776155      2.947428
 75            60           -13.35065      1.072974      1.227036
 80            60           -16.19069     -1.818129     -1.662277
 85            60           -20.89141     -7.378151     -7.188933
 90            60           -999          -999          -999     
 0             65           -8.466923     -1.840374     -.985889 
 5             65           -8.401931     -1.710875     -.86784  
 10            65           -8.217279     -1.332361     -.522909 
 15            65           -7.942343     -.735157       .021155 
 20            65           -7.621071      .031161       .719335 
 25            65           -7.305822      .903232       1.51414 
 30            65           -7.051295      1.812545      2.342953
 35            65           -6.910085      2.693089      3.144627
 40            65           -6.930391      3.485142      3.862893
 45            65           -7.15545       4.135114      4.446339
 50            65           -7.623831      4.592688      4.845858
 55            65           -8.369796      4.8061        5.010249
 60            65           -9.423282      4.715296      4.879614
 65            65           -10.81025      4.240725      4.37438 
 70            65           -12.55858      3.261401      3.373645
 75            65           -14.73099      1.562471      1.663255
 80            65           -17.57257     -1.325528     -1.223674
 85            65           -22.27469     -6.883661     -6.75993 
 90            65           -999          -999          -999     
 0             70           -10.30485     -1.526172     -.985889 
 5             70           -10.23897     -1.395781     -.862994 
 10            70           -10.0517      -1.01466      -.503816 
 15            70           -9.772587     -.413322       .06292  
 20            70           -9.445826      .358373       .79047  
 25            70           -9.124075      1.236739      1.619076
 30            70           -8.862356      2.152958      2.483789
 35            70           -8.71359       3.040752      3.32145 
 40            70           -8.726306      3.840173      4.074261
 45            70           -8.944074      4.497437      4.689739
 50            70           -9.405806      4.962051      5.118069
 55            70           -10.14612      5.182091      5.3076  
 60            70           -11.19529      5.097354      5.198157
 65            70           -12.57956      4.628158      4.709988
 70            70           -14.32692      3.653399      3.721998
 75            70           -16.49983      1.958124      2.019629
 80            70           -19.34271     -.927207      -.865103 
 85            70           -24.046       -6.483717     -6.408246
 90            70           -999          -295.4458     -295.412 
 0             75           -12.72596     -1.287013     -.985889 
 5             75           -12.65936     -1.155899     -.859066 
 10            75           -12.46996     -.772662      -.488372 
 15            75           -12.18746     -.167972       .096597 
 20            75           -11.85625      .608081       .847589 
 25            75           -11.52923      1.491547      1.702942
 30            75           -11.26169      2.413359      2.595802
 35            75           -11.10681      3.307023      3.461427
 40            75           -11.11338      4.112408      4.240867
 45            75           -11.32525      4.775573      4.880873
 50            75           -11.7816       5.245882      5.331146
 55            75           -12.51734      5.471283      5.539752
 60            75           -13.56301      5.391453      5.446356
 65            75           -14.94509      4.926602      4.971105
 70            75           -16.69164      3.955533      3.99279 
 75            75           -18.86494      2.263213      2.296579
 80            75           -21.70883     -.619962      -.586294 
 85            75           -26.41304     -6.175159     -6.134237
 90            75           -999          -293.7651     -293.7478
 0             80           -16.19248     -1.118859     -.985889 
 5             80           -16.12534     -.987212      -.856173 
 10            80           -15.93439     -.602417      -.477016 
 15            80           -15.64939      .004742       .121297 
 20            80           -15.3149       .784003       .889349 
 25            80           -14.98401      1.671225      1.764039
 30            80           -14.71218      2.597154      2.677109
 35            80           -14.55279      3.495136      3.562684
 40            80           -14.55485      4.304908      4.361013
 45            80           -14.76238      4.972412      5.018333
 50            80           -15.21477      5.446909      5.484042
 55            80           -15.94714      5.676251      5.706033
 60            80           -16.99024      5.600028      5.623882
 65            80           -18.3707       5.138371      5.157687
 70            80           -20.11665      4.170014      4.186169
 75            80           -22.29021      2.479865      2.494321
 80            80           -25.13484     -.401725      -.387146 
 85            80           -29.83971     -5.955958     -5.938235
 90            80           -999          -294.7704     -294.7508
 0             85           -22.17997     -1.019004     -.985889 
 5             85           -22.1125      -.887031      -.854402 
 10            85           -21.92059     -.501281      -.470071 
 15            85           -21.63406      .10739        .136376 
 20            85           -21.29757      .888616       .914789 
 25            85           -20.9643       1.778135      1.80117 
 30            85           -20.68985      2.706583      2.726405
 35            85           -20.52771      3.607208      3.623937
 40            85           -20.527        4.419663      4.433544
 45            85           -20.73188      5.089822      5.101173
 50            85           -21.18185      5.56688       5.576052
 55            85           -21.91216      5.798632      5.805983
 60            85           -22.95368      5.724614      5.730498
 65            85           -24.33315      5.26491       5.269671
 70            85           -26.07873      4.29821       4.30219 
 75            85           -28.25245      2.609389      2.612948
 80            85           -31.09751     -.271233      -.267644 
 85            85           -35.80278     -5.824876     -5.820513
 90            85           -999          -999          -999     
 0             90           -999          -.985889      -.985889 
 5             90           -290.717      -.853805      -.853805 
 10            90           -284.9326     -.467735      -.467735 
 15            90           -281.8293      .141446       .141446 
 20            90           -279.9023      .923333       .923333 
 25            90           -278.596       1.813626      1.813626
 30            90           -277.9914      2.742922      2.742922
 35            90           -277.9012      3.644436      3.644436
 40            90           -278.2541      4.457795      4.457795
 45            90           -278.8881      5.128846      5.128846
 50            90           -279.0562      5.606766      5.606766
 55            90           -278.3988      5.839329      5.839329
 60            90           -276.8061      5.766053      5.766053
 65            90           -275.0849      5.307006      5.307006
 70            90           -273.7987      4.340863      4.340863
 75            90           -273.5129      2.652489      2.652489
 80            90           -274.2412     -.227807      -.227807 
 85            90           -277.8084     -5.781251     -5.781251
 90            90           -999          -297.195      -297.1138
 0             95           -22.17997     -1.019004     -.985889 
 5             95           -22.1125      -.887031      -.854402 
 10            95           -21.92059     -.501281      -.470071 
 15            95           -21.63406      .10739        .136376 
 20            95           -21.29757      .888616       .914789 
 25            95           -20.9643       1.778135      1.80117 
 30            95           -20.68985      2.706583      2.726405
 35            95           -20.52771      3.607208      3.623937
 40            95           -20.527        4.419663      4.433544
 45            95           -20.73188      5.089822      5.101173
 50            95           -21.18185      5.56688       5.576052
 55            95           -21.91216      5.798632      5.805983
 60            95           -22.95368      5.724614      5.730498
 65            95           -24.33315      5.26491       5.269671
 70            95           -26.07873      4.29821       4.30219 
 75            95           -28.25245      2.609389      2.612948
 80            95           -31.09751     -.271233      -.267644 
 85            95           -35.80278     -5.824876     -5.820513
 90            95           -999          -291.4111     -291.3935
 0             100          -16.19248     -1.118859     -.985889 
 5             100          -16.12534     -.987212      -.856173 
 10            100          -15.93439     -.602417      -.477016 
 15            100          -15.64939      .004742       .121297 
 20            100          -15.3149       .784003       .889349 
 25            100          -14.98401      1.671225      1.764039
 30            100          -14.71218      2.597154      2.677109
 35            100          -14.55279      3.495136      3.562684
 40            100          -14.55485      4.304908      4.361013
 45            100          -14.76238      4.972412      5.018333
 50            100          -15.21477      5.446909      5.484042
 55            100          -15.94714      5.676251      5.706033
 60            100          -16.99024      5.600028      5.623882
 65            100          -18.3707       5.138371      5.157687
 70            100          -20.11665      4.170014      4.186169
 75            100          -22.29021      2.479865      2.494321
 80            100          -25.13484     -.401725      -.387146 
 85            100          -29.83971     -5.955958     -5.938235
 90            100          -999          -299.5345     -299.4258
 0             105          -12.72596     -1.287013     -.985889 
 5             105          -12.65936     -1.155899     -.859066 
 10            105          -12.46996     -.772662      -.488372 
 15            105          -12.18746     -.167972       .096597 
 20            105          -11.85625      .608081       .847589 
 25            105          -11.52923      1.491547      1.702942
 30            105          -11.26169      2.413359      2.595802
 35            105          -11.10681      3.307023      3.461427
 40            105          -11.11338      4.112408      4.240867
 45            105          -11.32525      4.775573      4.880873
 50            105          -11.7816       5.245882      5.331146
 55            105          -12.51734      5.471283      5.539752
 60            105          -13.56301      5.391453      5.446356
 65            105          -14.94509      4.926602      4.971105
 70            105          -16.69164      3.955533      3.99279 
 75            105          -18.86494      2.263213      2.296579
 80            105          -21.70883     -.619962      -.586294 
 85            105          -26.41304     -6.175159     -6.134237
 90            105          -999          -295.7127     -295.6769
 0             110          -10.30485     -1.526172     -.985889 
 5             110          -10.23897     -1.395781     -.862994 
 10            110          -10.0517      -1.01466      -.503816 
 15            110          -9.772587     -.413322       .06292  
 20            110          -9.445826      .358373       .79047  
 25            110          -9.124075      1.236739      1.619076
 30            110          -8.862356      2.152958      2.483789
 35            110          -8.71359       3.040752      3.32145 
 40            110          -8.726306      3.840173      4.074261
 45            110          -8.944074      4.497437      4.689739
 50            110          -9.405806      4.962051      5.118069
 55            110          -10.14612      5.182091      5.3076  
 60            110          -11.19529      5.097354      5.198157
 65            110          -12.57956      4.628158      4.709988
 70            110          -14.32692      3.653399      3.721998
 75            110          -16.49983      1.958124      2.019629
 80            110          -19.34271     -.927207      -.865103 
 85            110          -24.046       -6.483717     -6.408246
 90            110          -999          -999          -999     
 0             115          -8.466923     -1.840374     -.985889 
 5             115          -8.401931     -1.710875     -.86784  
 10            115          -8.217279     -1.332361     -.522909 
 15            115          -7.942343     -.735157       .021155 
 20            115          -7.621071      .031161       .719335 
 25            115          -7.305822      .903232       1.51414 
 30            115          -7.051295      1.812545      2.342953
 35            115          -6.910085      2.693089      3.144627
 40            115          -6.930391      3.485142      3.862893
 45            115          -7.15545       4.135114      4.446339
 50            115          -7.623831      4.592688      4.845858
 55            115          -8.369796      4.8061        5.010249
 60            115          -9.423282      4.715296      4.879614
 65            115          -10.81025      4.240725      4.37438 
 70            115          -12.55858      3.261401      3.373645
 75            115          -14.73099      1.562471      1.663255
 80            115          -17.57257     -1.325528     -1.223674
 85            115          -22.27469     -6.883661     -6.75993 
 90            115          -999          -297.953      -297.8723
 0             120          -7.006488     -2.235276     -.985889 
 5             120          -6.942529     -2.106809     -.873459 
 10            120          -6.760911     -1.731318     -.545099 
 15            120          -6.490818     -1.138905     -.027577 
 20            120          -6.175911     -.37882        .635912 
 25            120          -5.868203      .485949       1.390356
 30            120          -5.622023      1.387247      2.175804
 35            120          -5.489586      2.259374      2.933508
 40            120          -5.518709      3.042869      3.609116
 45            120          -5.752239      3.684369      4.152643
 50            120          -6.228343      4.133761      4.515989
 55            120          -6.980874      4.339469      4.64864 
 60            120          -8.039365      4.241609      4.491154
 65            120          -9.429452      3.760787      3.964279
 70            120          -11.17888      2.776155      2.947428
 75            120          -13.35065      1.072974      1.227036
 80            120          -16.19069     -1.818129     -1.662277
 85            120          -20.89141     -7.378151     -7.188933
 90            120          -999          -296.991      -296.9889
 0             125          -5.814063     -2.718598     -.985889 
 5             125          -5.751247     -2.591274     -.879681 
 10            125          -5.572986     -2.219127     -.569741 
 15            125          -5.308253     -1.632019     -.081938 
 20            125          -5.000395     -.878837       .5423   
 25            125          -4.701044     -.022159       1.250494
 30            125          -4.464118      .870254       1.985549
 35            125          -4.341413      1.733045      2.691427
 40            125          -4.380321      2.507043      3.31608 
 45            125          -4.623255      3.139139      3.811343
 50            125          -5.107934      3.579445      4.130509
 55            125          -5.867748      3.776594      4.224085
 60            125          -6.931783      3.670896      4.033362
 65            125          -8.325303      3.183129      3.479634
 70            125          -10.07591      2.192597      2.442839
 75            125          -12.24693      .484689       .710266 
 80            125          -15.08518     -2.409865     -2.18142 
 85            125          -19.78428     -7.971987     -7.694893
 90            125          -999          -294.4581     -294.4105
 0             130          -4.824539     -3.300809     -.985889 
 5             130          -4.762942     -3.174703     -.88632  
 10            130          -4.588259     -2.806121     -.596111 
 15            130          -4.329243     -2.22467      -.140401 
 20            130          -4.028906     -1.478853      .440957 
 25            130          -3.738477     -.630814       1.097886
 30            130          -3.511437      .25211        1.776165
 35            130          -3.399133      1.104924      2.422656
 40            130          -3.448505      1.868768      2.987941
 45            130          -3.701498      2.490805      3.426103
 50            130          -4.195348      2.921388      3.692285
 55            130          -4.962949      3.109377      3.738474
 60            130          -6.032899      2.995286      3.507113
 65            130          -7.430063      2.500081      2.920405
 70            130          -9.181885      1.503229      1.859151
 75            130          -11.35203     -.209742       .111901 
 80            130          -14.1883      -3.107992     -2.781895
 85            130          -18.8856      -8.672364     -8.277396
 90            130          -999          -298.288      -298.1599
 0             135          -3.996188     -3.996188     -.985889 
 5             135          -3.935848     -3.871338     -.893174 
 10            135          -3.764858     -3.506434     -.623424 
 15            135          -3.511741     -2.93082      -.201275 
 20            135          -3.219169     -2.192609      .334672 
 25            135          -2.937958     -1.353493      .936436 
 30            135          -2.721137     -.48038        1.552482
 35            135          -2.619594      .362115       2.132579
 40            135          -2.679796      1.115452      2.630149
 45            135          -2.943202      1.727075      3.001917
 50            135          -3.446548      2.147589      3.205398
 55            135          -4.222204      2.326087      3.194654
 60            135          -5.298263      2.203298      2.913881
 65            135          -6.699167      1.700383      2.286765
 70            135          -8.452199      .696979       1.19552 
 75            135          -10.62137     -1.021242     -.569403 
 80            135          -13.4555      -3.923325     -3.464724
 85            135          -18.15088     -9.49003      -8.935796
 90            135          -999          -999          -999     
 0             140          -3.300809     -4.824539     -.985889 
 5             140          -3.241726     -4.700944     -.900035 
 10            140          -3.074428     -4.339719     -.650856 
 15            140          -2.827214     -3.769947     -.262751 
 20            140          -2.542417     -3.039349      .22652  
 25            140          -2.27044      -2.209172      .770602 
 30            140          -2.063864     -1.345892      1.320242
 35            140          -1.973115     -.513747       1.827882
 40            140          -2.044185      .229047       2.249799
 45            140          -2.318046      .830215       2.545625
 50            140          -2.830923      1.240616      2.67577 
 55            140          -3.614662      1.40958       2.597078
 60            140          -4.696836      1.27805       2.256332
 65            140          -6.101463      .767385       1.579574
 70            140          -7.855657     -.242607       .451331 
 75            140          -10.02378     -1.966107     -1.335032
 80            140          -12.85568     -4.872045     -4.230883
 85            140          -17.54904     -10.4411      -9.66877 
 90            140          -999          -291.1829     -291.0735
 0             145          -2.718598     -5.814063     -.985889 
 5             145          -2.660734     -5.691686     -.906695 
 10            145          -2.497017     -5.334029     -.67757  
 15            145          -2.255531     -4.769924     -.322947 
 20            145          -1.978281     -4.046717      .119797 
 25            145          -1.715272     -3.225223      .605347 
 30            145          -1.518655     -2.371499      1.086124
 35            145          -1.438403     -1.549418      1.516744
 40            145          -1.520048     -.816881       1.856051
 45            145          -1.804086     -.225891       2.066609
 50            145          -2.326241      .174664       2.112098
 55            145          -3.117842      .33434        1.952896
 60            145          -4.205953      .194293       1.539435
 65            145          -5.614171     -.323926       .801402 
 70            145          -7.369444     -1.340339     -.372939 
 75            145          -9.536477     -3.068986     -2.185661
 80            145          -12.36613     -5.978683     -5.080515
 85            145          -17.05745     -11.55002     -10.47332
 90            145          -999          -294.1803     -293.8403
 0             150          -2.235276     -7.006488     -.985889 
 5             150          -2.178556     -6.885255     -.91295  
 10            150          -2.018199     -6.530946     -.702739 
 15            150          -1.782091     -5.972162     -.379966 
 20            150          -1.51193      -5.255897      .017929 
 25            150          -1.257351     -4.442563      .446037 
 30            150          -1.070098     -3.597827      .857701 
 35            150          -.999724      -2.785214      1.208949
 40            150          -1.091326     -2.062333      1.460552
 45            150          -1.384948     -1.480927      1.577628
 50            150          -1.91584      -1.089649      1.527172
 55            150          -2.71484      -.938727       1.273687
 60            150          -3.808528     -1.086802      .772448 
 65            150          -5.2201       -1.612144     -.041455 
 70            150          -6.976344     -2.634613     -1.273809
 75            150          -9.142285     -4.368115     -3.119467
 80            150          -11.96974     -7.281358     -6.011116
 85            150          -16.65908     -12.85486     -11.3428 
 90            150          -999          -299.5988     -298.7132
 0             155          -1.840374     -8.466923     -.985889 
 5             155          -1.784688     -8.346723     -.918609 
 10            155          -1.62737      -7.995441     -.725576 
 15            155          -1.396124     -7.441469     -.431962 
 20            155          -1.132377     -6.731485     -.075642 
 25            155          -.885429      -5.925538      .298279 
 30            155          -.706659      -5.08894       .643275 
 35            155          -.645236      -4.284908      .915851 
 40            155          -.745866      -3.57078       1.077725
 45            155          -1.04818      -2.998066      1.095702
 50            155          -1.586997     -2.615206      .939557 
 55            155          -2.392703     -2.472228      .578017 
 60            155          -3.491437     -2.627592     -.027771 
 65            155          -4.906026     -3.159401     -.935193 
 70            155          -6.663111     -4.18737      -2.240864
 75            155          -8.828009     -5.925282     -4.128215
 80            155          -11.65341     -8.841746     -7.013609
 85            155          -16.3409      -14.41721     -12.2631 
 90            155          -999          -999          -999     
 0             160          -1.526172     -10.30485     -.985889 
 5             160          -1.471378     -10.18555     -.923498 
 10            160          -1.316684     -9.836878     -.745356 
 15            160          -1.089637     -9.287061     -.477202 
 20            160          -.831432      -8.582504     -.157602 
 25            160          -.59108       -7.782941      .167686 
 30            160          -.419646      -6.953383      .451563 
 35            160          -.36597       -6.156774      .650073 
 40            160          -.474414      -5.450223      .724721 
 45            160          -.784254      -4.885035      .642691 
 50            160          -1.329932     -4.509465      .375299 
 55            160          -2.141442     -4.373369     -.105277 
 60            160          -3.244535     -4.53505      -.831733 
 65            160          -4.661717     -5.072464     -1.851937
 70            160          -6.4195       -6.105202     -3.249208
 75            160          -8.583454     -7.846937     -5.189301
 80            160          -11.40703     -10.76619     -8.064505
 85            160          -16.09287     -16.34336     -13.20601
 90            160          -999          -999          -999     
 0             165          -1.287013     -12.72596     -.985889 
 5             165          -1.232943     -12.60738     -.927467 
 10            165          -1.080377     -12.26083     -.761447 
 15            165          -.856738      -11.71439     -.514146 
 20            165          -.603031      -11.01423     -.224919 
 25            165          -.368036      -10.21986      .059572 
 30            165          -.202562      -9.396016      .291199 
 35            165          -.155182      -8.60544       .424828 
 40            165          -.26998       -7.905049      .420713 
 45            165          -.585941      -7.345982      .245001 
 50            165          -1.137199     -6.976342     -.131196 
 55            165          -1.953427     -6.845847     -.734025 
 60            165          -3.060058     -7.012668     -1.591107
 65            165          -4.479336     -7.554645     -2.739986
 70            165          -6.237666     -8.591264     -4.246641
 75            165          -8.400823     -10.33611     -6.251248
 80            165          -11.22289     -13.25764     -9.111873
 85            165          -15.90735     -18.83619     -14.11912
 90            165          -999          -999          -999     
 0             170          -1.118859     -16.19248     -.985889 
 5             170          -1.065323     -16.07443     -.930392 
 10            170          -.914325      -15.72945     -.77333  
 15            170          -.693198      -15.18549     -.541511 
 20            170          -.442808      -14.48858     -.275008 
 25            170          -.211763      -13.69803     -.02139  
 30            170          -.050686      -12.87841      .170077 
 35            170          -.007952      -12.09228      .252812 
 40            170          -.127441      -11.39644      .185279 
 45            170          -.44792       -10.84189     -.068368 
 50            170          -1.003297     -10.47663     -.538763 
 55            170          -1.823007     -10.35027     -1.25255 
 60            170          -2.932248     -10.52089     -2.234697
 65            170          -4.353066     -11.06624     -3.513925
 70            170          -6.111786     -12.10572     -5.137341
 75            170          -8.274339     -13.85287     -7.213152
 80            170          -11.09526     -16.77608     -10.05605
 85            170          -15.7787      -22.35566     -14.91532
 90            170          -999          -999          -999     
 0             175          -1.019004     -22.17997     -.985889 
 5             175          -.965794      -22.06224     -.932185 
 10            175          -.815757      -21.71821     -.780619 
 15            175          -.596169      -21.17578     -.558331 
 20            175          -.34781       -20.48086     -.305894 
 25            175          -.119187      -19.69265     -.071537 
 30            175           .039195      -18.87562      .094598 
 35            175           .079081      -18.09222      .144751 
 40            175          -.043283      -17.39916      .035827 
 45            175          -.366534      -16.84739     -.26996  
 50            175          -.924438      -16.48481     -.805374 
 55            175          -1.746282     -16.36099     -1.59874 
 60            175          -2.857121     -16.53394     -2.674751
 65            175          -4.27888      -17.08136     -4.056862
 70            175          -6.037835     -18.1226      -5.777097
 75            175          -8.200011     -19.87116     -7.914059
 80            175          -11.02023     -22.7954      -10.74083
 85            175          -15.70303     -28.3756      -15.47445
 90            175          -999          -999          -999     
 0             180          -.985889      -999          -.985889 
 5             180          -.932788      -999          -.932788 
 10            180          -.783075      -999          -.783075 
 15            180          -.564005      -999          -.564005 
 20            180          -.316331      -999          -.316331 
 25            180          -.088522      -999          -.088522 
 30            180           .068951      -999           .068951 
 35            180           .107877      -999           .107877 
 40            180          -.015456      -999          -.015456 
 45            180          -.339641      -999          -.339641 
 50            180          -.898396      -999          -.898396 
 55            180          -1.720959     -999          -1.720959
 60            180          -2.832336     -999          -2.832336
 65            180          -4.254412     -999          -4.254412
 70            180          -6.013446     -999          -6.013446
 75            180          -8.175493     -999          -8.175493
 80            180          -10.99547     -999          -10.99547
 85            180          -15.67806     -999          -15.67806
 90            180          -999          -999          -999     
 0             185          -1.019004     -22.17997     -.985889 
 5             185          -.965794      -22.06224     -.932185 
 10            185          -.815757      -21.71821     -.780619 
 15            185          -.596169      -21.17578     -.558331 
 20            185          -.34781       -20.48086     -.305894 
 25            185          -.119187      -19.69265     -.071537 
 30            185           .039195      -18.87562      .094598 
 35            185           .079081      -18.09222      .144751 
 40            185          -.043283      -17.39916      .035827 
 45            185          -.366534      -16.84739     -.26996  
 50            185          -.924438      -16.48481     -.805374 
 55            185          -1.746282     -16.36099     -1.59874 
 60            185          -2.857121     -16.53394     -2.674751
 65            185          -4.27888      -17.08136     -4.056862
 70            185          -6.037835     -18.1226      -5.777097
 75            185          -8.200011     -19.87116     -7.914059
 80            185          -11.02023     -22.7954      -10.74083
 85            185          -15.70303     -28.3756      -15.47445
 90            185          -999          -999          -999     
 0             190          -1.118859     -16.19248     -.985889 
 5             190          -1.065323     -16.07443     -.930392 
 10            190          -.914325      -15.72945     -.77333  
 15            190          -.693198      -15.18549     -.541511 
 20            190          -.442808      -14.48858     -.275008 
 25            190          -.211763      -13.69803     -.02139  
 30            190          -.050686      -12.87841      .170077 
 35            190          -.007952      -12.09228      .252812 
 40            190          -.127441      -11.39644      .185279 
 45            190          -.44792       -10.84189     -.068368 
 50            190          -1.003297     -10.47663     -.538763 
 55            190          -1.823007     -10.35027     -1.25255 
 60            190          -2.932248     -10.52089     -2.234697
 65            190          -4.353066     -11.06624     -3.513925
 70            190          -6.111786     -12.10572     -5.137341
 75            190          -8.274339     -13.85287     -7.213152
 80            190          -11.09526     -16.77608     -10.05605
 85            190          -15.7787      -22.35566     -14.91532
 90            190          -999          -999          -999     
 0             195          -1.287013     -12.72596     -.985889 
 5             195          -1.232943     -12.60738     -.927467 
 10            195          -1.080377     -12.26083     -.761447 
 15            195          -.856738      -11.71439     -.514146 
 20            195          -.603031      -11.01423     -.224919 
 25            195          -.368036      -10.21986      .059572 
 30            195          -.202562      -9.396016      .291199 
 35            195          -.155182      -8.60544       .424828 
 40            195          -.26998       -7.905049      .420713 
 45            195          -.585941      -7.345982      .245001 
 50            195          -1.137199     -6.976342     -.131196 
 55            195          -1.953427     -6.845847     -.734025 
 60            195          -3.060058     -7.012668     -1.591107
 65            195          -4.479336     -7.554645     -2.739986
 70            195          -6.237666     -8.591264     -4.246641
 75            195          -8.400823     -10.33611     -6.251248
 80            195          -11.22289     -13.25764     -9.111873
 85            195          -15.90735     -18.83619     -14.11912
 90            195          -999          -999          -999     
 0             200          -1.526172     -10.30485     -.985889 
 5             200          -1.471378     -10.18555     -.923498 
 10            200          -1.316684     -9.836878     -.745356 
 15            200          -1.089637     -9.287061     -.477202 
 20            200          -.831432      -8.582504     -.157602 
 25            200          -.59108       -7.782941      .167686 
 30            200          -.419646      -6.953383      .451563 
 35            200          -.36597       -6.156774      .650073 
 40            200          -.474414      -5.450223      .724721 
 45            200          -.784254      -4.885035      .642691 
 50            200          -1.329932     -4.509465      .375299 
 55            200          -2.141442     -4.373369     -.105277 
 60            200          -3.244535     -4.53505      -.831733 
 65            200          -4.661717     -5.072464     -1.851937
 70            200          -6.4195       -6.105202     -3.249208
 75            200          -8.583454     -7.846937     -5.189301
 80            200          -11.40703     -10.76619     -8.064505
 85            200          -16.09287     -16.34336     -13.20601
 90            200          -999          -298.8206     -298.5505
 0             205          -1.840374     -8.466923     -.985889 
 5             205          -1.784688     -8.346723     -.918609 
 10            205          -1.62737      -7.995441     -.725576 
 15            205          -1.396124     -7.441469     -.431962 
 20            205          -1.132377     -6.731485     -.075642 
 25            205          -.885429      -5.925538      .298279 
 30            205          -.706659      -5.08894       .643275 
 35            205          -.645236      -4.284908      .915851 
 40            205          -.745866      -3.57078       1.077725
 45            205          -1.04818      -2.998066      1.095702
 50            205          -1.586997     -2.615206      .939557 
 55            205          -2.392703     -2.472228      .578017 
 60            205          -3.491437     -2.627592     -.027771 
 65            205          -4.906026     -3.159401     -.935193 
 70            205          -6.663111     -4.18737      -2.240864
 75            205          -8.828009     -5.925282     -4.128215
 80            205          -11.65341     -8.841746     -7.013609
 85            205          -16.3409      -14.41721     -12.2631 
[...]
 5             285          -13.49411     -1.990506     -1.693682
 10            285          -13.25853     -1.558892     -1.27475 
 15            285          -12.90361     -.874333      -.610341 
 20            285          -12.4804       .007541       .245787 
 25            285          -12.04979      1.012692      1.222114
 30            285          -11.67475      2.060867      2.240834
 35            285          -11.41451      3.076654      3.22838 
 40            285          -11.32185      3.994463      4.120311
 45            285          -11.44277      4.757846      4.860781
 50            285          -11.81734      5.315546      5.398785
 55            285          -12.48058      5.615865      5.682668
 60            285          -13.46295      5.599212      5.652778
 65            285          -14.79097      5.18659       5.230026
 70            285          -16.4934       4.257508      4.293889
 75            285          -18.63391      2.597504      2.630089
 80            285          -21.45767     -.262603      -.229745 
 85            285          -26.15372     -5.803693     -5.76381 
 90            285          -999          -999          -999     
 0             290          -11.15545     -2.376767     -1.836483
 5             290          -11.07379     -2.230459     -1.697689
 10            290          -10.84055     -1.80117      -1.290586
 15            290          -10.48934     -1.120286     -.645059 
 20            290          -10.07098     -.243165       .1867   
 25            290          -9.646104      .75646        1.135294
 30            290          -9.277362      1.798624      2.125033
 35            290          -9.023702      2.808142      3.084029
 40            290          -8.937613      3.71961       3.948983
 45            290          -9.06481       4.476737      4.664753
 50            290          -9.445061      5.02841       5.180745
 55            290          -10.11309      5.323061      5.445532
 60            290          -11.09904      5.301222      5.399585
 65            290          -12.42919      4.884009      4.963893
 70            290          -14.13219      3.951029      4.018034
 75            290          -16.27193      2.287904      2.347993
 80            290          -19.09421     -.574481      -.513838 
 85            290          -23.78894     -6.116957     -6.043353
 90            290          -999          -297.5053     -297.3952
 0             295          -9.317518     -2.690969     -1.836483
 5             295          -9.236843     -2.545641     -1.702632
 10            295          -9.00647      -2.119217     -1.310161
 15            295          -8.659841     -1.442866     -.688116 
 20            295          -8.247479     -.571611       .113107 
 25            295          -7.829667      .421195       1.02664 
 30            295          -7.468703      1.455934      1.979396
 35            295          -7.223171      2.457708      2.901634
 40            295          -7.145205      3.36134       3.731583
 45            295          -7.280161      4.110736      4.415096
 50            295          -7.667438      4.654957      4.9022  
 55            295          -8.341379      4.942598      5.141843
 60            295          -9.331745      4.914345      5.074718
 65            295          -10.66452      4.491452      4.621962
 70            295          -12.3682       3.553649      3.663323
 75            295          -14.50695      1.886662      1.985174
 80            295          -17.32735     -.978541      -.87902  
 85            295          -22.02041     -6.522734     -6.401962
 90            295          -999          -295.1476     -295.1131
 0             300          -7.857083     -3.085871     -1.836483
 5             300          -7.777543     -2.941677     -1.708363
 10            300          -7.5505       -2.518573     -1.332912
 15            300          -7.209177     -1.847476     -.738356 
 20            300          -6.803767     -.983024       .02679  
 25            300          -6.394155      .00187        .898437 
 30            300          -6.042221      1.027992      1.806489
 35            300          -5.806129      2.020772      2.683785
 40            300          -5.737602      2.915302      3.470488
 45            300          -5.881576      3.655712      4.1138  
 50            300          -6.277017      4.191268      4.56465 
 55            300          -6.957824      4.470759      4.772579
 60            300          -7.953314      4.435046      4.678664
 65            300          -9.289101      4.005545      4.204312
 70            300          -10.99354      3.062131      3.229556
 75            300          -13.13109      1.39065       1.54133 
 80            300          -15.94926     -1.477833     -1.325428
 85            300          -20.64031     -7.024022     -6.839147
 90            300          -999          -999          -999     
 0             305          -6.664657     -3.569193     -1.836483
 5             305          -6.586373     -3.426255     -1.71471 
 10            305          -6.363015     -3.006825     -1.358176
 15            305          -6.027567     -2.341545     -.794401 
 20            305          -5.629856     -1.484627     -.070084 
 25            305          -5.229333     -.508501       .753537 
 30            305          -4.887412      .508064       1.609595
 35            305          -4.661796      1.490866      2.433873
 40            305          -4.603748      2.375291      3.168883
 45            305          -4.757736      3.105723      3.763579
 50            305          -5.162244      3.631656      4.170163
 55            305          -5.850668      3.90209       4.339084
 60            305          -6.851833      3.858085      4.212061
 65            305          -8.190938      3.421239      3.710973
 70            305          -9.896167      2.471586      2.716331
 75            305          -12.03232      .795108       1.015886
 80            305          -14.84793     -2.077024     -1.853427
 85            305          -19.5367      -7.625433     -7.354392
 90            305          -999          -291.9063     -291.8848
 0             310          -5.675133     -4.151404     -1.836483
 5             310          -5.598188     -4.009804     -1.72148 
 10            310          -5.378758     -3.594291     -1.38521 
 15            310          -5.049575     -2.935215     -.854674 
 20            310          -4.660081     -2.086337     -.174977 
 25            310          -4.269262     -1.119573      .595372 
 30            310          -3.938041     -.113218       1.392792
 35            310          -3.723626      .858917       2.156246
 40            310          -3.676787      1.732536      2.830968
 45            310          -3.841491      2.452291      3.368112
 50            310          -4.2557        2.967922      3.721612
 55            310          -4.952268      3.228657      3.843266
 60            310          -5.959487      3.175771      3.675824
 65            310          -7.302107      2.731056      3.141978
 70            310          -9.008128      1.774718      2.123029
 75            310          -11.14271      .092884       .407933 
 80            310          -13.95549     -2.783157     -2.463652
 85            310          -18.64174     -8.333947     -7.947117
 90            310          -999          -297.275      -297.0196
 0             315          -4.846783     -4.846783     -1.836483
 5             315          -4.771218     -4.706563     -1.728471
 10            315          -4.555841     -4.295091     -1.41321 
 15            315          -4.233124     -3.642418     -.917436 
 20            315          -3.852115     -2.801843     -.285007 
 25            315          -3.471324     -1.844753      .427971 
 30            315          -3.151168     -.848955       1.161037
 35            315          -2.948344      .112144       1.856391
 40            315          -2.913111      .974575       2.462258
 45            315          -3.088914      1.683272      2.932416
 50            315          -3.513169      2.18823       3.223075
 55            315          -4.218166      2.438914      3.287962
 60            315          -5.231634      2.37682       3.071437
 65            315          -6.577854      1.923944      2.497544
 70            315          -8.284633      .960672       1.44889 
 75            315          -10.4175      -.726718      -.283753 
 80            315          -13.22725     -3.606816     -3.156979
 85            315          -17.91081     -9.160074     -8.616512
 90            315          -999          -999          -999     
 0             320          -4.151404     -5.675133     -1.836483
 5             320          -4.07722      -5.536294     -1.735468
 10            320          -3.865897     -5.128864     -1.441331
 15            320          -3.54965      -4.482598     -.98082  
 20            320          -3.177137     -3.650336     -.396995 
 25            320          -2.806395     -2.702939      .255941 
 30            320          -2.497334     -1.717727      .92024  
 35            320          -2.30614      -.7677         1.541148
 40            320          -2.282559      .083501       2.069947
 45            320          -2.469509      .781094       2.463373
 50            320          -2.903854      1.275327      2.680459
 55            320          -3.617308      1.515908      2.677584
 60            320          -4.637031      1.444557      2.401528
 65            320          -5.986827      .983475       1.778526
 70            320          -7.694303      .013227       .693342 
 75            320          -9.825367     -1.679751     -1.060466
 80            320          -12.63198     -4.563931     -3.934257
 85            320          -17.31274     -10.11967     -9.361102
 90            320          -999          -999          -999     
 0             325          -3.569193     -6.664657     -1.836483
 5             325          -3.496348     -6.527156     -1.742261
 10            325          -3.288956     -6.123646     -1.468715
 15            325          -2.978988     -5.483597     -1.042887
 20            325          -2.614724     -4.659406     -.507529 
 25            325          -2.253744     -3.721427      .084421 
 30            325          -1.95547      -2.746505      .677298 
 35            325          -1.775592     -1.807249      1.218908
 40            325          -1.763354     -.966977       1.663363
 45            325          -1.961159     -.280198       1.970447
 50            325          -2.405327      .203589       2.102459
 55            325          -3.127009      .434324       2.019215
 60            325          -4.152803      .353949       1.670977
 65            325          -5.506041     -.115136       .98742  
 70            325          -7.214134     -1.092185     -.143166 
 75            325          -9.343357     -2.790616     -1.922855
 80            325          -12.14682     -5.678777     -4.795553
 85            325          -16.82477     -11.23694     -10.17777
 90            325          -999          -298.4486     -298.4326
 0             330          -3.085871     -7.857083     -1.836483
 5             330          -3.014282     -7.720838     -1.74864 
 10            330          -2.810581     -7.321007     -1.494514
 15            330          -2.506507     -6.686796     -1.101681
 20            330          -2.149991     -5.870187     -.613061 
 25            330          -1.798189     -4.941061     -.081018 
 30            330          -1.510063     -3.975818      .440053 
 35            330          -1.340837     -3.046698      .899755 
 40            330          -1.339283     -2.216719      1.254421
 45            330          -1.547313     -1.540127      1.466581
 50            330          -2.000737     -1.066187      1.501928
 55            330          -2.730164     -.844733       1.324375
 60            330          -3.761658     -.933619       .888901 
 65            330          -5.118103     -1.410253      .130361 
 70            330          -6.82672      -2.39372      -1.057279
 75            330          -8.954134     -4.097296     -2.869157
 80            330          -11.75454     -6.989215     -5.738355
 85            330          -16.42977     -12.54967     -11.05979
 90            330          -999          -999          -999     
 0             335          -2.690969     -9.317518     -1.836483
 5             335          -2.620516     -9.182408     -1.754411
 10            335          -2.420151     -8.785903     -1.517921
 15            335          -2.121408     -8.156971     -1.155296
 20            335          -1.771904     -7.347223     -.710021 
 25            335          -1.428411     -6.426112     -.234548 
 30            335          -1.149479     -5.469638      .217139 
 35            335          -.98991       -4.549707      .59545  
 40            335          -.998046      -3.729061      .857972 
 45            335          -1.215354     -3.061712      .969157 
 50            335          -1.677174     -2.596708      .89765  
 55            335          -2.413622     -2.383682      .611674 
 60            335          -3.450273     -2.480297      .072038 
 65            335          -4.809596     -2.963788     -.77906  
 70            335          -6.518641     -3.953086     -2.038809
 75            335          -8.644349     -5.661337     -3.891309
 80            335          -11.44191     -8.556671     -6.753669
 85            335          -16.11461     -14.11921     -11.993  
 90            335          -999          -999          -999     
 0             340          -2.376767     -11.15545     -1.836483
 5             340          -2.307294     -11.02132     -1.759397
 10            340          -2.109809     -10.62769     -1.538196
 15            340          -1.815671     -10.00331     -1.201947
 20            340          -1.472226     -9.199495     -.794967 
 25            340          -1.135917     -8.285313     -.370316 
 30            340          -.864938      -7.336423      .017652 
 35            340          -.713727      -6.424444      .319144 
 40            340          -.730253      -5.611879      .491793 
 45            340          -.955598      -4.952535      .500679 
 50            340          -1.42469      -4.495274      .316221 
 55            340          -2.167216     -4.289552     -.089709 
 60            340          -3.20832      -4.392867     -.750032 
 65            340          -4.570112     -4.882304     -1.713103
 70            340          -6.279491     -5.876659     -3.063106
 75            340          -8.403671     -7.588965     -4.966942
 80            340          -11.19871     -10.48726     -7.818133
 85            340          -15.86917     -16.0516      -12.94913
 90            340          -999          -299.6305     -299.1439
 0             345          -2.137608     -13.57656     -1.836483
 5             345          -2.06893      -13.44322     -1.763444
 10            345          -1.873782     -13.05192     -1.554688
 15            345          -1.58338      -12.43125     -1.240045
 20            345          -1.244854     -11.63224     -.864751 
 25            345          -.91438       -10.72369     -.482768 
 30            345          -.649864      -9.780962     -.149359 
 35            345          -.505448      -8.875446      .084677 
 40            345          -.528799      -8.069452      .175906 
 45            345          -.760681      -7.416621      .08857  
 50            345          -1.235688     -6.965659     -.206885 
 55            345          -1.983154     -6.765882     -.736643 
 60            345          -3.027873     -6.874652     -1.528286
 65            345          -4.391657     -7.36893      -2.619707
 70            345          -6.101281     -8.367404     -4.077883
 75            345          -8.224185     -10.08301     -6.044599
 80            345          -11.01713     -12.98372     -8.879752
 85            345          -15.68574     -18.54953     -13.87544
 90            345          -999          -999          -999     
 0             350          -1.969454     -17.04308     -1.836483
 5             350          -1.901363     -16.91033     -1.766428
 10            350          -1.707936     -16.52074     -1.566867
 15            350          -1.420289     -15.9028      -1.268265
 20            350          -1.085389     -15.10734     -.916685 
 25            350          -.759219      -14.20294     -.567013 
 30            350          -.499472      -13.26476     -.275593 
 35            350          -.360071      -12.36401     -.09458  
 40            350          -.38846       -11.56287     -.069102 
 45            350          -.62517       -10.91485     -.236793 
 50            350          -1.104544     -10.46854     -.628793 
 55            350          -1.855657     -10.27315     -1.271538
 60            350          -2.90304      -10.38596     -2.189638
 65            350          -4.268286     -10.88381     -3.411829
 70            350          -5.978077     -11.88533     -4.986069
 75            350          -8.100018     -13.60338     -7.022424
 80            350          -10.8914      -16.50587     -9.837982
 85            350          -15.55862     -22.07276     -14.68385
 90            350          -999          -999          -999     
 0             355          -1.869599     -23.03056     -1.836483
 5             355          -1.801866     -22.89817     -1.768256
 10            355          -1.609494     -22.50964     -1.574338
 15            355          -1.323534     -21.89336     -1.285611
 20            355          -.990857      -21.10008     -.948711 
 25            355          -.667324      -20.19822     -.619208 
 30            355          -.4105        -19.26283     -.354299 
 35            355          -.274174      -18.36501     -.207285 
 40            355          -.305653      -17.56684     -.224815 
 45            355          -.545324      -16.92177     -.446426 
 50            355          -1.027378     -16.47832     -.905318 
 55            355          -1.780726     -16.28562     -1.629471
 60            355          -2.829741     -16.4009      -2.642975
 65            355          -4.19588      -16.90095     -3.968955
 70            355          -5.905766     -17.90433     -5.639958
 75            355          -8.027109     -19.62388     -7.736379
 80            355          -10.81753     -22.52747     -10.53404
 85            355          -15.48389     -28.09503     -15.25213
 90            355          -999          -999          -999     
 0             360          -1.836483     -999          -1.836483
 5             360          -1.768872     -999          -1.768872
 10            360          -1.576855     -999          -1.576855
 15            360          -1.291463     -999          -1.291463
 20            360          -.959534      -999          -.959534 
 25            360          -.63689       -999          -.63689  
 30            360          -.38105       -999          -.38105  
 35            360          -.245761      -999          -.245761 
 40            360          -.278281      -999          -.278281 
 45            360          -.518949      -999          -.518949 
 50            360          -1.001906     -999          -1.001906
 55            360          -1.756008     -999          -1.756008
 60            360          -2.805573     -999          -2.805573
 65            360          -4.172011     -999          -4.172011
 70            360          -5.881929     -999          -5.881929
 75            360          -8.003069     -999          -8.003069
 80            360          -10.79316     -999          -10.79316
 85            360          -15.45923     -999          -15.45923
 90            360          -999          -999          -999     
