                   ****************************************
                     MINI-NUMERICAL ELECTROMAGNETICS CODE
                                   MININEC
                   ****************************************

ENVIRONMENT (+1 FOR FREE SPACE, -1 FOR GROUND PLANE): -1
 NUMBER OF MEDIA (0 FOR PERFECTLY CONDUCTING GROUND):  1
 RELATIVE DIELECTRIC CONSTANT, CONDUCTIVITY:  13 , .005

NO. OF GEO-OBJECTS: 2

WIRE NO. 1
            COORDINATES                                 END         NO. OF
   X             Y             Z          RADIUS     CONNECTION     SEGMENTS
 0             0             10                         0
-4.58993       0             7.35          .00075       0             92

WIRE NO. 2
            COORDINATES                                 END         NO. OF
   X             Y             Z          RADIUS     CONNECTION     SEGMENTS
 0             0             10                        -1
 4.58993       0             7.35          .00075       0             92

                  **** ANTENNA GEOMETRY ****

WIRE NO.  1 COORDINATES                                 CONNECTION PULSE
X             Y             Z             RADIUS        END1 END2  NO.
-.04989        0             9.971196      .00075        0    1   1
-.099781       0             9.942391      .00075        1    1   2
-.149672       0             9.913587      .00075        1    1   3
-.199562       0             9.884783      .00075        1    1   4
-.249453       0             9.855978      .00075        1    1   5
-.299343       0             9.827174      .00075        1    1   6
-.349234       0             9.79837       .00075        1    1   7
-.399124       0             9.769565      .00075        1    1   8
-.449015       0             9.740761      .00075        1    1   9
-.498905       0             9.711957      .00075        1    1  10
-.548796       0             9.683152      .00075        1    1  11
-.598687       0             9.654348      .00075        1    1  12
-.648577       0             9.625543      .00075        1    1  13
-.698468       0             9.596739      .00075        1    1  14
-.748358       0             9.567935      .00075        1    1  15
-.798249       0             9.53913       .00075        1    1  16
-.848139       0             9.510326      .00075        1    1  17
-.89803        0             9.481522      .00075        1    1  18
-.94792        0             9.452717      .00075        1    1  19
-.997811       0             9.423913      .00075        1    1  20
-1.047701      0             9.395109      .00075        1    1  21
-1.097592      0             9.366304      .00075        1    1  22
-1.147482      0             9.3375        .00075        1    1  23
-1.197373      0             9.308696      .00075        1    1  24
-1.247264      0             9.279891      .00075        1    1  25
-1.297154      0             9.251087      .00075        1    1  26
-1.347045      0             9.222283      .00075        1    1  27
-1.396935      0             9.193478      .00075        1    1  28
-1.446826      0             9.164674      .00075        1    1  29
-1.496716      0             9.13587       .00075        1    1  30
-1.546607      0             9.107065      .00075        1    1  31
-1.596497      0             9.078261      .00075        1    1  32
-1.646388      0             9.049457      .00075        1    1  33
-1.696278      0             9.020652      .00075        1    1  34
-1.746169      0             8.991848      .00075        1    1  35
-1.79606       0             8.963043      .00075        1    1  36
-1.84595       0             8.934239      .00075        1    1  37
-1.895841      0             8.905435      .00075        1    1  38
-1.945731      0             8.87663       .00075        1    1  39
-1.995622      0             8.847826      .00075        1    1  40
-2.045512      0             8.819022      .00075        1    1  41
-2.095403      0             8.790217      .00075        1    1  42
-2.145293      0             8.761413      .00075        1    1  43
-2.195184      0             8.732609      .00075        1    1  44
-2.245074      0             8.703804      .00075        1    1  45
-2.294965      0             8.675         .00075        1    1  46
-2.344856      0             8.646196      .00075        1    1  47
-2.394746      0             8.617391      .00075        1    1  48
-2.444637      0             8.588587      .00075        1    1  49
-2.494527      0             8.559783      .00075        1    1  50
-2.544418      0             8.530978      .00075        1    1  51
-2.594308      0             8.502174      .00075        1    1  52
-2.644199      0             8.47337       .00075        1    1  53
-2.694089      0             8.444565      .00075        1    1  54
-2.74398       0             8.415761      .00075        1    1  55
-2.79387       0             8.386957      .00075        1    1  56
-2.843761      0             8.358152      .00075        1    1  57
-2.893652      0             8.329348      .00075        1    1  58
-2.943542      0             8.300543      .00075        1    1  59
-2.993433      0             8.271739      .00075        1    1  60
-3.043323      0             8.242935      .00075        1    1  61
-3.093214      0             8.21413       .00075        1    1  62
-3.143104      0             8.185326      .00075        1    1  63
-3.192995      0             8.156522      .00075        1    1  64
-3.242885      0             8.127717      .00075        1    1  65
-3.292776      0             8.098913      .00075        1    1  66
-3.342666      0             8.070109      .00075        1    1  67
-3.392557      0             8.041304      .00075        1    1  68
-3.442447      0             8.0125        .00075        1    1  69
-3.492338      0             7.983696      .00075        1    1  70
-3.542229      0             7.954891      .00075        1    1  71
-3.592119      0             7.926087      .00075        1    1  72
-3.64201       0             7.897283      .00075        1    1  73
-3.6919        0             7.868478      .00075        1    1  74
-3.741791      0             7.839674      .00075        1    1  75
-3.791681      0             7.81087       .00075        1    1  76
-3.841572      0             7.782065      .00075        1    1  77
-3.891462      0             7.753261      .00075        1    1  78
-3.941353      0             7.724457      .00075        1    1  79
-3.991243      0             7.695652      .00075        1    1  80
-4.041134      0             7.666848      .00075        1    1  81
-4.091025      0             7.638043      .00075        1    1  82
-4.140915      0             7.609239      .00075        1    1  83
-4.190806      0             7.580435      .00075        1    1  84
-4.240696      0             7.55163       .00075        1    1  85
-4.290587      0             7.522826      .00075        1    1  86
-4.340477      0             7.494022      .00075        1    1  87
-4.390368      0             7.465217      .00075        1    1  88
-4.440258      0             7.436413      .00075        1    1  89
-4.490149      0             7.407609      .00075        1    1  90
-4.540039      0             7.378804      .00075        1    0  91

WIRE NO.  2 COORDINATES                                 CONNECTION PULSE
X             Y             Z             RADIUS        END1 END2  NO.
 0             0             10            .00075       -1    2  92
 .04989        0             9.971196      .00075        2    2  93
 .099781       0             9.942391      .00075        2    2  94
 .149672       0             9.913587      .00075        2    2  95
 .199562       0             9.884783      .00075        2    2  96
 .249453       0             9.855978      .00075        2    2  97
 .299343       0             9.827174      .00075        2    2  98
 .349234       0             9.79837       .00075        2    2  99
 .399124       0             9.769565      .00075        2    2 100
 .449015       0             9.740761      .00075        2    2 101
 .498905       0             9.711957      .00075        2    2 102
 .548796       0             9.683152      .00075        2    2 103
 .598687       0             9.654348      .00075        2    2 104
 .648577       0             9.625543      .00075        2    2 105
 .698468       0             9.596739      .00075        2    2 106
 .748358       0             9.567935      .00075        2    2 107
 .798249       0             9.53913       .00075        2    2 108
 .848139       0             9.510326      .00075        2    2 109
 .89803        0             9.481522      .00075        2    2 110
 .94792        0             9.452717      .00075        2    2 111
 .997811       0             9.423913      .00075        2    2 112
 1.047701      0             9.395109      .00075        2    2 113
 1.097592      0             9.366304      .00075        2    2 114
 1.147482      0             9.3375        .00075        2    2 115
 1.197373      0             9.308696      .00075        2    2 116
 1.247264      0             9.279891      .00075        2    2 117
 1.297154      0             9.251087      .00075        2    2 118
 1.347045      0             9.222283      .00075        2    2 119
 1.396935      0             9.193478      .00075        2    2 120
 1.446826      0             9.164674      .00075        2    2 121
 1.496716      0             9.13587       .00075        2    2 122
 1.546607      0             9.107065      .00075        2    2 123
 1.596497      0             9.078261      .00075        2    2 124
 1.646388      0             9.049457      .00075        2    2 125
 1.696278      0             9.020652      .00075        2    2 126
 1.746169      0             8.991848      .00075        2    2 127
 1.79606       0             8.963043      .00075        2    2 128
 1.84595       0             8.934239      .00075        2    2 129
 1.895841      0             8.905435      .00075        2    2 130
 1.945731      0             8.87663       .00075        2    2 131
 1.995622      0             8.847826      .00075        2    2 132
 2.045512      0             8.819022      .00075        2    2 133
 2.095403      0             8.790217      .00075        2    2 134
 2.145293      0             8.761413      .00075        2    2 135
 2.195184      0             8.732609      .00075        2    2 136
 2.245074      0             8.703804      .00075        2    2 137
 2.294965      0             8.675         .00075        2    2 138
 2.344856      0             8.646196      .00075        2    2 139
 2.394746      0             8.617391      .00075        2    2 140
 2.444637      0             8.588587      .00075        2    2 141
 2.494527      0             8.559783      .00075        2    2 142
 2.544418      0             8.530978      .00075        2    2 143
 2.594308      0             8.502174      .00075        2    2 144
 2.644199      0             8.47337       .00075        2    2 145
 2.694089      0             8.444565      .00075        2    2 146
 2.74398       0             8.415761      .00075        2    2 147
 2.79387       0             8.386957      .00075        2    2 148
 2.843761      0             8.358152      .00075        2    2 149
 2.893652      0             8.329348      .00075        2    2 150
 2.943542      0             8.300543      .00075        2    2 151
 2.993433      0             8.271739      .00075        2    2 152
 3.043323      0             8.242935      .00075        2    2 153
 3.093214      0             8.21413       .00075        2    2 154
 3.143104      0             8.185326      .00075        2    2 155
 3.192995      0             8.156522      .00075        2    2 156
 3.242885      0             8.127717      .00075        2    2 157
 3.292776      0             8.098913      .00075        2    2 158
 3.342666      0             8.070109      .00075        2    2 159
 3.392557      0             8.041304      .00075        2    2 160
 3.442447      0             8.0125        .00075        2    2 161
 3.492338      0             7.983696      .00075        2    2 162
 3.542229      0             7.954891      .00075        2    2 163
 3.592119      0             7.926087      .00075        2    2 164
 3.64201       0             7.897283      .00075        2    2 165
 3.6919        0             7.868478      .00075        2    2 166
 3.741791      0             7.839674      .00075        2    2 167
 3.791681      0             7.81087       .00075        2    2 168
 3.841572      0             7.782065      .00075        2    2 169
 3.891462      0             7.753261      .00075        2    2 170
 3.941353      0             7.724457      .00075        2    2 171
 3.991243      0             7.695652      .00075        2    2 172
 4.041134      0             7.666848      .00075        2    2 173
 4.091025      0             7.638043      .00075        2    2 174
 4.140915      0             7.609239      .00075        2    2 175
 4.190806      0             7.580435      .00075        2    2 176
 4.240696      0             7.55163       .00075        2    2 177
 4.290587      0             7.522826      .00075        2    2 178
 4.340477      0             7.494022      .00075        2    2 179
 4.390368      0             7.465217      .00075        2    2 180
 4.440258      0             7.436413      .00075        2    2 181
 4.490149      0             7.407609      .00075        2    2 182
 4.540039      0             7.378804      .00075        2    0 183

NO. OF SOURCES :  1
PULSE NO., VOLTAGE MAGNITUDE, PHASE (DEGREES): 92 , 1 , 0
NUMBER OF LOADS 0

FREQUENCY (MHZ): 13.8
    WAVE LENGTH =  21.72464  METERS

********************    SOURCE DATA     ********************
PULSE 92      VOLTAGE = ( 1 , 0 J)
              CURRENT = ( 1.320637E-02 ,  4.363753E-03 J)
              IMPEDANCE = ( 68.26742 , -22.55746 J)
              POWER =  6.603185E-03  WATTS

********************    CURRENT DATA    ********************

WIRE NO.  1 :
PULSE         REAL          IMAGINARY     MAGNITUDE     PHASE
 NO.          (AMPS)        (AMPS)        (AMPS)        (DEGREES)
J             -1.320637E-02 -4.363753E-03  1.390865E-02 -161.715  
 1            -1.320500E-02 -4.329299E-03  1.389658E-02 -161.8481 
 2            -1.319999E-02 -4.301561E-03  1.388320E-02 -161.9504 
 3            -1.319139E-02 -4.275246E-03  1.386688E-02 -162.0428 
 4            -1.317921E-02 -4.249368E-03  1.384734E-02 -162.1291 
 5            -1.316346E-02 -4.223503E-03  1.382442E-02 -162.2111 
 6            -1.314414E-02 -4.197425E-03  1.379807E-02 -162.2897 
 7            -1.312125E-02 -4.170996E-03  1.376824E-02 -162.3655 
 8            -1.309480E-02 -4.144125E-03  1.373491E-02 -162.4389 
 9            -1.306480E-02 -4.116750E-03  1.369805E-02 -162.5102 
 10           -1.303125E-02 -4.088825E-03  1.365767E-02 -162.5797 
 11           -1.299415E-02 -4.060318E-03  1.361375E-02 -162.6474 
 12           -1.295352E-02 -4.031204E-03  1.356629E-02 -162.7136 
 13           -1.290936E-02 -4.001465E-03  1.351530E-02 -162.7783 
 14           -1.286168E-02 -3.971085E-03  1.346077E-02 -162.8418 
 15           -1.281048E-02 -3.940056E-03  1.340271E-02 -162.9039 
 16           -1.275579E-02 -3.908369E-03  1.334112E-02 -162.965  
 17           -1.269761E-02 -3.876020E-03  1.327602E-02 -163.0249 
 18           -1.263594E-02 -3.843005E-03  1.320741E-02 -163.0838 
 19           -1.257082E-02 -3.809324E-03  1.313531E-02 -163.1417 
 20           -1.250224E-02 -3.774975E-03  1.305972E-02 -163.1986 
 21           -1.243022E-02 -3.739961E-03  1.298067E-02 -163.2547 
 22           -1.235479E-02 -3.704281E-03  1.289816E-02 -163.3099 
 23           -1.227595E-02 -3.667941E-03  1.281221E-02 -163.3643 
 24           -1.219372E-02 -3.630942E-03  1.272284E-02 -163.418  
 25           -1.210813E-02 -3.593290E-03  1.263006E-02 -163.4709 
 26           -1.201918E-02 -3.554989E-03  1.253390E-02 -163.523  
 27           -1.192691E-02 -3.516045E-03  1.243438E-02 -163.5745 
 28           -1.183133E-02 -3.476463E-03  1.233151E-02 -163.6253 
 29           -1.173245E-02 -3.436250E-03  1.222531E-02 -163.6755 
 30           -1.163032E-02 -3.395413E-03  1.211582E-02 -163.7251 
 31           -1.152494E-02 -3.353959E-03  1.200305E-02 -163.7741 
 32           -1.141634E-02 -3.311895E-03  1.188703E-02 -163.8225 
 33           -1.130454E-02 -3.269230E-03  1.176777E-02 -163.8703 
 34           -1.118958E-02 -3.225971E-03  1.164532E-02 -163.9177 
 35           -1.107147E-02 -3.182127E-03  1.151969E-02 -163.9645 
 36           -1.095024E-02 -3.137706E-03  1.139092E-02 -164.0108 
 37           -1.082593E-02 -3.092718E-03  1.125903E-02 -164.0566 
 38           -1.069856E-02 -3.047172E-03  1.112404E-02 -164.1019 
 39           -1.056815E-02 -3.001076E-03  1.098600E-02 -164.1468 
 40           -1.043473E-02 -2.954441E-03  1.084493E-02 -164.1913 
 41           -1.029835E-02 -2.907277E-03  1.070085E-02 -164.2354 
 42           -1.015902E-02 -2.859593E-03  1.055381E-02 -164.279  
 43           -1.001678E-02 -2.811399E-03  1.040384E-02 -164.3222 
 44           -9.871655E-03 -2.762706E-03  1.025096E-02 -164.3651 
 45           -9.723684E-03 -2.713525E-03  1.009521E-02 -164.4075 
 46           -9.572898E-03 -2.663864E-03  9.936627E-03 -164.4496 
 47           -9.419329E-03 -2.613736E-03  9.775243E-03 -164.4914 
 48           -9.263010E-03 -2.563151E-03  9.611093E-03 -164.5328 
 49           -9.103977E-03 -2.512120E-03  9.444212E-03 -164.5739 
 50           -8.942263E-03 -2.460653E-03  9.274636E-03 -164.6146 
 51           -8.777902E-03 -2.408761E-03  9.102400E-03 -164.6551 
 52           -8.610930E-03 -2.356456E-03  8.927542E-03 -164.6952 
 53           -8.441382E-03 -2.303749E-03  8.750096E-03 -164.7351 
 54           -8.269293E-03 -2.250650E-03  8.570101E-03 -164.7746 
 55           -8.094699E-03 -2.197171E-03  8.387593E-03 -164.8139 
 56           -7.917636E-03 -2.143322E-03  8.202608E-03 -164.8529 
 57           -7.738138E-03 -2.089115E-03  8.015185E-03 -164.8917 
 58           -7.556242E-03 -2.034561E-03  7.825359E-03 -164.9302 
 59           -7.371984E-03 -1.979670E-03  7.633167E-03 -164.9684 
 60           -7.185398E-03 -1.924454E-03  7.438647E-03 -165.0065 
 61           -6.996520E-03 -1.868922E-03  7.241834E-03 -165.0442 
 62           -6.805384E-03 -1.813086E-03  7.042765E-03 -165.0818 
 63           -6.612025E-03 -1.756956E-03  6.841474E-03 -165.1192 
 64           -6.416475E-03 -1.700542E-03  6.637996E-03 -165.1563 
 65           -6.218768E-03 -1.643855E-03  6.432366E-03 -165.1932 
 66           -6.018935E-03 -1.586903E-03  6.224615E-03 -165.23   
 67           -5.817006E-03 -1.529696E-03  6.014776E-03 -165.2665 
 68           -5.613012E-03 -1.472243E-03  5.802879E-03 -165.3029 
 69           -5.406979E-03 -1.414553E-03  5.588952E-03 -165.3391 
 70           -5.198932E-03 -1.356633E-03  5.373021E-03 -165.3751 
 71           -4.988896E-03 -1.298491E-03  5.155110E-03 -165.411  
 72           -4.776889E-03 -1.240134E-03  4.935241E-03 -165.4467 
 73           -4.562929E-03 -1.181567E-03  4.713430E-03 -165.4822 
 74           -4.347028E-03 -1.122795E-03  4.489691E-03 -165.5176 
 75           -4.129195E-03 -1.063821E-03  4.264032E-03 -165.5528 
 76           -3.909431E-03 -1.004647E-03  4.036454E-03 -165.588  
 77           -3.687730E-03 -9.452743E-04  3.806954E-03 -165.6229 
 78           -3.464079E-03 -8.856999E-04  3.575515E-03 -165.6578 
 79           -3.238453E-03 -8.259193E-04  3.342113E-03 -165.6926 
 80           -3.010811E-03 -7.659244E-04  3.106706E-03 -165.7272 
 81           -2.781096E-03 -7.057026E-04  2.869235E-03 -165.7617 
 82           -2.549227E-03 -6.452356E-04  2.629617E-03 -165.7962 
 83           -2.315093E-03 -5.844974E-04  2.387738E-03 -165.8305 
 84           -2.078537E-03 -5.234516E-04  2.143436E-03 -165.8648 
 85           -1.839343E-03 -4.620470E-04  1.896489E-03 -165.8989 
 86           -1.597205E-03 -4.002103E-04  1.646582E-03 -165.9331 
 87           -1.351674E-03 -3.378337E-04  1.393254E-03 -165.9671 
 88           -1.102068E-03 -2.747521E-04  1.135800E-03 -166.0012 
 89           -8.472591E-04 -2.106922E-04  8.730631E-04 -166.0352 
 90           -5.851660E-04 -1.451463E-04  6.028986E-04 -166.0693 
 91           -3.110096E-04 -7.694570E-05  3.203867E-04 -166.1037 
E              0             0             0             0
WIRE NO.  2 :
PULSE         REAL          IMAGINARY     MAGNITUDE     PHASE
 NO.          (AMPS)        (AMPS)        (AMPS)        (DEGREES)
J              1.320637E-02  4.363753E-03  1.390865E-02  18.28499 
 93            1.320500E-02  4.329299E-03  1.389658E-02  18.15188 
 94            1.319999E-02  4.301561E-03  1.388320E-02  18.04955 
 95            1.319139E-02  4.275246E-03  1.386688E-02  17.95718 
 96            1.317921E-02  4.249368E-03  1.384734E-02  17.87086 
 97            1.316346E-02  4.223503E-03  1.382442E-02  17.78887 
 98            1.314414E-02  4.197425E-03  1.379807E-02  17.71027 
 99            1.312125E-02  4.170996E-03  1.376824E-02  17.63447 
 100           1.309480E-02  4.144125E-03  1.373491E-02  17.56106 
 101           1.306480E-02  4.116750E-03  1.369805E-02  17.48976 
 102           1.303125E-02  4.088825E-03  1.365767E-02  17.42033 
 103           1.299415E-02  4.060318E-03  1.361375E-02  17.3526  
 104           1.295352E-02  4.031204E-03  1.356629E-02  17.28642 
 105           1.290936E-02  4.001465E-03  1.351530E-02  17.22167 
 106           1.286168E-02  3.971085E-03  1.346077E-02  17.15824 
 107           1.281048E-02  3.940056E-03  1.340271E-02  17.09606 
 108           1.275579E-02  3.908369E-03  1.334112E-02  17.03504 
 109           1.269761E-02  3.876020E-03  1.327602E-02  16.97512 
 110           1.263594E-02  3.843005E-03  1.320741E-02  16.91624 
 111           1.257082E-02  3.809324E-03  1.313531E-02  16.85834 
 112           1.250224E-02  3.774975E-03  1.305972E-02  16.80137 
 113           1.243022E-02  3.739961E-03  1.298067E-02  16.7453  
 114           1.235479E-02  3.704281E-03  1.289816E-02  16.69007 
 115           1.227595E-02  3.667941E-03  1.281221E-02  16.63566 
 116           1.219372E-02  3.630942E-03  1.272284E-02  16.58203 
 117           1.210813E-02  3.593290E-03  1.263006E-02  16.52914 
 118           1.201918E-02  3.554989E-03  1.253390E-02  16.47697 
 119           1.192691E-02  3.516045E-03  1.243438E-02  16.42548 
 120           1.183133E-02  3.476463E-03  1.233151E-02  16.37466 
 121           1.173245E-02  3.436250E-03  1.222531E-02  16.32447 
 122           1.163032E-02  3.395413E-03  1.211582E-02  16.2749  
 123           1.152494E-02  3.353959E-03  1.200305E-02  16.22593 
 124           1.141634E-02  3.311895E-03  1.188703E-02  16.17752 
 125           1.130454E-02  3.269230E-03  1.176777E-02  16.12967 
 126           1.118958E-02  3.225971E-03  1.164532E-02  16.08235 
 127           1.107147E-02  3.182127E-03  1.151969E-02  16.03554 
 128           1.095024E-02  3.137706E-03  1.139092E-02  15.98924 
 129           1.082593E-02  3.092718E-03  1.125903E-02  15.94341 
 130           1.069856E-02  3.047172E-03  1.112404E-02  15.89806 
 131           1.056815E-02  3.001076E-03  1.098600E-02  15.85315 
 132           1.043473E-02  2.954441E-03  1.084493E-02  15.80869 
 133           1.029835E-02  2.907277E-03  1.070085E-02  15.76465 
 134           1.015902E-02  2.859593E-03  1.055381E-02  15.72102 
 135           1.001678E-02  2.811399E-03  1.040384E-02  15.67779 
 136           9.871655E-03  2.762706E-03  1.025096E-02  15.63494 
 137           9.723684E-03  2.713525E-03  1.009521E-02  15.59247 
 138           9.572898E-03  2.663864E-03  9.936627E-03  15.55037 
 139           9.419329E-03  2.613736E-03  9.775243E-03  15.50862 
 140           9.263010E-03  2.563151E-03  9.611093E-03  15.4672  
 141           9.103977E-03  2.512120E-03  9.444212E-03  15.42613 
 142           8.942263E-03  2.460653E-03  9.274636E-03  15.38537 
 143           8.777902E-03  2.408761E-03  9.102400E-03  15.34492 
 144           8.610930E-03  2.356456E-03  8.927542E-03  15.30478 
 145           8.441382E-03  2.303749E-03  8.750096E-03  15.26494 
 146           8.269293E-03  2.250650E-03  8.570101E-03  15.22537 
 147           8.094699E-03  2.197171E-03  8.387593E-03  15.18609 
 148           7.917636E-03  2.143322E-03  8.202608E-03  15.14707 
 149           7.738138E-03  2.089115E-03  8.015185E-03  15.10832 
 150           7.556242E-03  2.034561E-03  7.825359E-03  15.06982 
 151           7.371984E-03  1.979670E-03  7.633167E-03  15.03156 
 152           7.185398E-03  1.924454E-03  7.438647E-03  14.99354 
 153           6.996520E-03  1.868922E-03  7.241834E-03  14.95575 
 154           6.805384E-03  1.813086E-03  7.042765E-03  14.91819 
 155           6.612025E-03  1.756956E-03  6.841474E-03  14.88084 
 156           6.416475E-03  1.700542E-03  6.637996E-03  14.8437  
 157           6.218768E-03  1.643855E-03  6.432366E-03  14.80676 
 158           6.018935E-03  1.586903E-03  6.224615E-03  14.77002 
 159           5.817006E-03  1.529696E-03  6.014776E-03  14.73347 
 160           5.613012E-03  1.472243E-03  5.802879E-03  14.69711 
 161           5.406979E-03  1.414553E-03  5.588952E-03  14.66092 
 162           5.198932E-03  1.356633E-03  5.373021E-03  14.6249  
 163           4.988896E-03  1.298491E-03  5.155110E-03  14.58904 
 164           4.776889E-03  1.240134E-03  4.935241E-03  14.55335 
 165           4.562929E-03  1.181567E-03  4.713430E-03  14.51781 
 166           4.347028E-03  1.122795E-03  4.489691E-03  14.48241 
 167           4.129195E-03  1.063821E-03  4.264032E-03  14.44716 
 168           3.909431E-03  1.004647E-03  4.036454E-03  14.41204 
 169           3.687730E-03  9.452743E-04  3.806954E-03  14.37706 
 170           3.464079E-03  8.856999E-04  3.575515E-03  14.34219 
 171           3.238453E-03  8.259193E-04  3.342113E-03  14.30744 
 172           3.010811E-03  7.659244E-04  3.106706E-03  14.27281 
 173           2.781096E-03  7.057026E-04  2.869235E-03  14.23828 
 174           2.549227E-03  6.452356E-04  2.629617E-03  14.20384 
 175           2.315093E-03  5.844974E-04  2.387738E-03  14.1695  
 176           2.078537E-03  5.234516E-04  2.143436E-03  14.13524 
 177           1.839343E-03  4.620470E-04  1.896489E-03  14.10105 
 178           1.597205E-03  4.002103E-04  1.646582E-03  14.06693 
 179           1.351674E-03  3.378337E-04  1.393254E-03  14.03286 
 180           1.102068E-03  2.747521E-04  1.135800E-03  13.99881 
 181           8.472591E-04  2.106922E-04  8.730631E-04  13.96477 
 182           5.851660E-04  1.451463E-04  6.028986E-04  13.93066 
 183           3.110096E-04  7.694570E-05  3.203867E-04  13.89629 
E              0             0             0             0

********************     FAR FIELD      ********************

ZENITH ANGLE : INITIAL,INCREMENT,NUMBER: 0 , 5 , 19
AZIMUTH ANGLE: INITIAL,INCREMENT,NUMBER: 0 , 5 , 73

********************    PATTERN DATA    ********************
ZENITH        AZIMUTH       VERTICAL      HORIZONTAL    TOTAL
 ANGLE         ANGLE        PATTERN (DB)  PATTERN (DB)  PATTERN (DB)
 0             0            -.993324      -999          -.993324 
 5             0            -.939957      -999          -.939957 
 10            0            -.789453      -999          -.789453 
 15            0            -.569107      -999          -.569107 
 20            0            -.31976       -999          -.31976  
 25            0            -.090031      -999          -.090031 
 30            0             .069421      -999           .069421 
 35            0             .110169      -999           .110169 
 40            0            -.011724      -999          -.011724 
 45            0            -.335084      -999          -.335084 
 50            0            -.893887      -999          -.893887 
 55            0            -1.717663     -999          -1.717663
 60            0            -2.831739     -999          -2.831739
 65            0            -4.258306     -999          -4.258306
 70            0            -6.023755     -999          -6.023755
 75            0            -8.193788     -999          -8.193788
 80            0            -11.02208     -999          -11.02208
 85            0            -15.71117     -999          -15.71117
 90            0            -999          -999          -999     
 0             5            -1.026439     -22.1874      -.993324 
 5             5            -.972964      -22.06954     -.939356 
 10            5            -.822139      -21.72504     -.787004 
 15            5            -.601278      -21.18173     -.563447 
 20            5            -.351252      -20.48549     -.309347 
 25            5            -.120713      -19.69554     -.073079 
 30            5             .03964       -18.87649      .095026 
 35            5             .08134       -18.09094      .146996 
 40            5            -.03959       -17.39571      .039515 
 45            5            -.362022      -16.84185     -.265426 
 50            5            -.919979      -16.47732     -.800833 
 55            5            -1.743039     -16.35173     -1.595296
 60            5            -2.856578     -16.5231      -2.673784
 65            5            -4.282825     -17.06917     -4.060002
 70            5            -6.04819      -18.10931     -5.78607 
 75            5            -8.218343     -19.85699     -7.930312
 80            5            -11.04686     -22.7806      -10.76487
 85            5            -15.73616     -28.36042     -15.50508
 90            5            -999          -999          -999     
 0             10           -1.126295     -16.19992     -.993324 
 5             10           -1.072495     -16.08173     -.937568 
 10            10           -.920716      -15.73629     -.779736 
 15            10           -.698328      -15.19146     -.54667  
 20            10           -.446285      -14.49324     -.278531 
 25            10           -.213344      -13.70097     -.023029 
 30            10           -.050315      -12.87935      .170383 
 35            10           -.005787      -12.0911       .25492  
 40            10           -.123863      -11.3931       .18884  
 45            10           -.443542      -10.83649     -.063904 
 50            10           -.998988      -10.4693      -.534147 
 55            10           -1.819922     -10.34118     -1.248726
 60            10           -2.931864     -10.51025     -2.23279 
 65            10           -4.357162     -11.05427     -3.515195
 70            10           -6.122276     -12.09266     -5.143085
 75            10           -8.292781     -13.83894     -7.224556
 80            10           -11.12198     -16.76153     -10.07395
 85            10           -15.81189     -22.34073     -14.93979
 90            10           -999          -999          -999     
 0             15           -1.294448     -12.7334      -.993324 
 5             15           -1.240119     -12.61468     -.934651 
 10            15           -1.086783     -12.26769     -.767886 
 15            15           -.861902      -11.72039     -.519374 
 20            15           -.606567      -11.01895     -.228553 
 25            15           -.369704      -10.22289      .057776 
 30            15           -.202311      -9.397082      .291308 
 35            15           -.153172      -8.604407      .426716 
 40            15           -.26659       -7.901904      .424067 
 45            15           -.581782      -7.340803      .249338 
 50            15           -1.133132     -6.969268     -.126507 
 55            15           -1.950599     -6.837053     -.729737 
 60            15           -3.059935     -7.002355     -1.588056
 65            15           -4.483681     -7.543028     -2.739056
 70            15           -6.248375     -8.578568     -4.248729
 75            15           -8.419445     -10.32257     -6.257285
 80            15           -11.24974     -13.24349     -9.122898
 85            15           -15.94064     -18.82168     -14.13621
 90            15           -999          -999          -999     
 0             20           -1.533608     -10.31229     -.993324 
 5             20           -1.47856      -10.19285     -.930694 
 10            20           -1.323111     -9.843754     -.751839 
 15            20           -1.094847     -9.293115     -.482523 
 20            20           -.835047      -8.5873       -.161387 
 25            20           -.592867      -7.786088      .165681 
 30            20           -.419558      -6.954609      .451412 
 35            20           -.364169      -6.155948      .65167  
 40            20           -.471279      -5.447334      .727797 
 45            20           -.78039       -4.88016       .646838 
 50            20           -1.326193     -4.502741      .380007 
 55            20           -2.138964     -4.364971     -.100582 
 60            20           -3.244764     -4.525173     -.827651 
 65            20           -4.666398     -5.06132      -1.849071
 70            20           -6.430509     -6.093009     -3.248181
 75            20           -8.602322     -7.833924     -5.190851
 80            20           -11.43408     -10.75259     -8.06968 
 85            20           -16.12629     -16.3294      -13.21636
 90            20           -999          -299.248      -298.4029
 0             25           -1.84781      -8.474359     -.993324 
 5             25           -1.791876     -8.354036     -.92582  
 10            25           -1.633824     -8.002343     -.732113 
 15            25           -1.401391     -7.447579     -.437396 
 20            25           -1.13609      -6.736377     -.079609 
 25            25           -.887362      -5.928829      .296022 
 30            25           -.706771      -5.090364      .642812 
 35            25           -.643693      -4.284336      .917101 
 40            25           -.743044      -3.568205      1.080463
 45            25           -1.044679     -2.993564      1.099593
 50            25           -1.583662     -2.608912      .944197 
 55            25           -2.390653     -2.464314      .582973 
 60            25           -3.492099     -2.618249     -.022932 
 65            25           -4.91112      -3.148835     -.930896 
 70            25           -6.674487     -4.175795     -2.237565
 75            25           -8.847179     -5.912916     -4.12651 
 80            25           -11.68069     -8.828813     -7.014446
 85            25           -16.37449     -14.40393     -12.26809
 90            25           -999          -999          -999     
 0             30           -2.242711     -7.013924     -.993324 
 5             30           -2.185751     -6.892576     -.920177 
 10            30           -2.024683     -6.537878     -.70934  
 15            30           -1.787423     -5.978337     -.385532 
 20            30           -1.515755     -5.260901      .013754 
 25            30           -1.259453     -4.446021      .443495 
 30            30           -1.070443     -3.599479      .856888 
 35            30           -.998477      -2.784937      1.209809
 40            30           -1.088865     -2.060119      1.462903
 45            30           -1.381866     -1.476855      1.581199
 50            30           -1.91297      -1.083852      1.531645
 55            30           -2.713284     -.931371       1.278728
 60            30           -3.80969      -1.078076      .777733 
 65            30           -5.225671     -1.602245     -.036245 
 70            30           -6.988147     -2.623748     -1.269029
 75            30           -9.161807     -4.356494     -3.115607
 80            30           -11.99728     -7.269195     -6.008986
 85            30           -16.69287     -12.84237     -11.34387
 90            30           -999          -293.0144     -292.3062
 0             35           -2.726033     -5.821498     -.993324 
 5             35           -2.667938     -5.699016     -.91394  
 10            35           -2.503534     -5.340993     -.68424  
 15            35           -2.260936     -4.776172     -.328654 
 20            35           -1.982231     -4.051844      .115396 
 25            35           -1.717561     -3.228865      .602497 
 30            35           -1.519255     -2.373404      1.084935
 35            35           -1.437483     -1.549466      1.517186
 40            35           -1.517984     -.815067       1.85798 
 45            35           -1.801466     -.222292       2.069806
 50            35           -2.323883      .179916       2.116308
 55            35           -3.11683       .341081       1.957856
 60            35           -4.207665      .202343       1.544887
 65            35           -5.620269     -.314759       .807089 
 70            35           -7.381719     -1.330252     -.367308 
 75            35           -9.556389     -3.058182     -2.180493
 80            35           -12.39397     -5.967364     -5.076485
 85            35           -17.09146     -11.5384      -10.47168
 90            35           -999          -999          -999     
 0             40           -3.308245     -4.831974     -.993324 
 5             40           -3.248939     -4.708283     -.9073   
 10            40           -3.08098      -4.346719     -.6576   
 15            40           -2.832697     -3.776271     -.268608 
 20            40           -2.5465       -3.044607      .221883 
 25            40           -2.272927     -2.213011      .767434 
 30            40           -2.064736     -1.348065      1.318666
 35            40           -1.972543     -.514139       1.827892
 40            40           -2.042543      .230439       2.251283
 45            40           -2.315915      .833312       2.548407
 50            40           -2.829109      1.245291      2.67964 
 55            40           -3.614228      1.415672      2.601818
 60            40           -4.699133      1.285385      2.261726
 65            40           -6.108121      .775778       1.585404
 70            40           -7.868433     -.233344       .457347 
 75            40           -10.04411     -1.956166     -1.329172
 80            40           -12.88384     -4.861618     -4.225732
 85            40           -17.5833      -10.43038     -9.665348
 90            40           -999          -999          -999     
 0             45           -4.003624     -4.003624     -.993324 
 5             45           -3.943071     -3.878686     -.900459 
 10            45           -3.771446     -3.51347      -.630243 
 15            45           -3.517303     -2.937224     -.207286 
 20            45           -3.223389     -2.198002      .329796 
 25            45           -2.94065      -1.357533      .932949 
 30            45           -2.722288     -.482828       1.550519
 35            45           -2.61938       .361369       2.132154
 40            45           -2.678587      1.11641       2.63118 
 45            45           -2.941573      1.729658      3.004257
 50            45           -3.44529       2.151671      3.20887 
 55            45           -4.222362      2.331514      3.199069
 60            45           -5.301159      2.209901      2.919052
 65            45           -6.7064        1.707985      2.292496
 70            45           -8.465493      .7054         1.201592
 75            45           -10.64213     -1.012183     -.563281 
 80            45           -13.484       -3.91381      -3.459004
 85            45           -18.18539     -9.480242     -8.931292
 90            45           -999          -999          -999     
 0             50           -4.831974     -3.308245     -.993324 
 5             50           -4.770173     -3.182059     -.893625 
 10            50           -4.594884     -2.813193     -.603005 
 15            50           -4.334885     -2.231152     -.146563 
 20            50           -4.033262     -1.484382      .435847 
 25            50           -3.741373     -.635054       1.094087
 30            50           -3.512866      .249387       1.773825
 35            50           -3.399275      1.103826      2.421809
 40            50           -3.447728      1.869294      2.988524
 45            50           -3.700368      2.492877      3.427992
 50            50           -4.194645      2.924883      3.695325
 55            50           -4.963695      3.114144      3.742498
 60            50           -6.036392      3.001162      3.511949
 65            50           -7.437869      2.506898      2.925875
 70            50           -9.195696      1.510816      1.865058
 75            50           -11.37322     -.201557       .117995 
 80            50           -14.21713     -3.09938      -2.775981
 85            50           -18.92038     -8.663496     -8.272304
 90            50           -999          -999          -299.9932
 0             55           -5.821498     -2.726033     -.993324 
 5             55           -5.758487     -2.598639     -.887006 
 10            55           -5.579646     -2.226234     -.576707 
 15            55           -5.313972     -1.638578     -.088245 
 20            55           -5.004883     -.884496       .536967 
 25            55           -4.704138     -.026594       1.2464  
 30            55           -4.465817      .867266       1.982853
 35            55           -4.341898      1.731607      2.690178
 40            55           -4.37996       2.507151      3.316231
 45            55           -4.622607      3.140718      3.812789
 50            55           -5.107765      3.582373      4.133108
 55            55           -5.869062      3.780725      4.227683
 60            55           -6.935852      3.676073      4.037799
 65            55           -8.333663      3.189191      3.484745
 70            55           -10.09022      2.199381      2.448445
 75            55           -12.26854      .492033       .716149 
 80            55           -15.11434     -2.402121     -2.17556 
 85            55           -19.81931     -7.964004     -7.689556
 90            55           -999          -295.5272     -295.1043
 0             60           -7.013924     -2.242711     -.993324 
 5             60           -6.949778     -2.114183     -.880802 
 10            60           -6.767604     -1.738458     -.552132 
 15            60           -6.496609     -1.145536     -.034018 
 20            60           -6.180523     -.384601       .630374 
 25            60           -5.871481      .481331       1.385991
 30            60           -5.623973      1.384012      2.172782
 35            60           -5.490391      2.257618      2.931888
 40            60           -5.518736      3.042588      3.608867
 45            60           -5.75204       3.685488      4.153667
 50            60           -6.228673      4.13616       4.518158
 55            60           -6.982718      4.343007      4.651809
 60            60           -8.043972      4.246135      4.495171
 65            60           -9.438331      3.766147      3.968987
 70            60           -11.19366      2.782193      2.952663
 75            60           -13.37266      1.079536      1.232606
 80            60           -16.22017     -1.811193     -1.656619
 85            60           -20.92667     -7.370991     -7.183573
 90            60           -999          -299.5583     -299.4827
 0             65           -8.474359     -1.84781      -.993324 
 5             65           -8.409187     -1.718256     -.8752   
 10            65           -8.224002     -1.339531     -.530002 
 15            65           -7.9482       -.741853       .014594 
 20            65           -7.625795      .025269       .713615 
 25            65           -7.309267      .898451       1.509534
 30            65           -7.053472      1.809086      2.339641
 35            65           -6.91118       2.691047      3.142679
 40            65           -6.930769      3.484511      3.862283
 45            65           -7.155656      4.13582       4.446981
 50            65           -7.624609      4.594613      4.84763 
 55            65           -8.372116      4.809107      5.013011
 60            65           -9.428373      4.719238      4.88322 
 65            65           -10.8196       4.245453      4.378683
 70            65           -12.57378      3.266769      3.378489
 75            65           -14.75336      1.568333      1.668471
 80            65           -17.60234     -1.319315     -1.218292
 85            65           -22.31018     -6.877239     -6.754679
 90            65           -999          -999          -999     
 0             70           -10.31229     -1.533608     -.993324 
 5             70           -10.24623     -1.403169     -.870368 
 10            70           -10.05845     -1.021855     -.510962 
 15            70           -9.7785       -.420073       .056256 
 20            70           -9.450646      .352387       .784593 
 25            70           -9.127663      1.231816      1.614266
 30            70           -8.864728      2.149306      2.480231
 35            70           -8.714934      3.038463      3.319221
 40            70           -8.726985      3.83924       4.073342
 45            70           -8.944627      4.497787      4.690049
 50            70           -9.40697       4.963568      5.119491
 55            70           -10.14885      5.184641      5.309999
 60            70           -11.2008       5.100795      5.201392
 65            70           -12.58931      4.632346      4.713916
 70            70           -14.34249      3.658192      3.726473
 75            70           -16.52251      1.963385      2.024498
 80            70           -19.37272     -.921615      -.860014 
 85            70           -24.08168     -6.477927     -6.403167
 90            70           -999          -999          -999     
 0             75           -12.7334      -1.294448     -.993324 
 5             75           -12.66662     -1.163292     -.866451 
 10            75           -12.47673     -.779878      -.49556  
 15            75           -12.19342     -.174768       .08985  
 20            75           -11.86115      .602017       .841588 
 25            75           -11.53294      1.48651       1.697968
 30            75           -11.26422      2.409552      2.592047
 35            75           -11.10835      3.304535      3.458972
 40            75           -11.1143       4.111232      4.239699
 45            75           -11.32608      4.775635      4.880913
 50            75           -11.78308      5.24707       5.332282
 55            75           -12.5204       5.473464      5.541851
 60            75           -13.56885      5.394489      5.44928 
 65            75           -14.95516      4.930353      4.974716
 70            75           -16.7075       3.959863      3.996947
 75            75           -18.88787      2.267989      2.301143
 80            75           -21.73904     -.61487       -.581474 
 85            75           -26.44888     -6.169879     -6.129341
 90            75           -999          -295.4733     -295.4251
 0             80           -16.19992     -1.126295     -.993324 
 5             80           -16.13261     -.99461       -.863566 
 10            80           -15.94117     -.609649      -.484235 
 15            80           -15.65538     -.002087       .114489 
 20            80           -15.31986      .777883       .883256 
 25            80           -14.9878       1.666103      1.758945
 30            80           -14.71482      2.593232      2.67321 
 35            80           -14.55449      3.492502      3.560064
 40            80           -14.55595      4.303553      4.359661
 45            80           -14.76342      4.972264      5.018175
 50            80           -15.21648      5.447855      5.484965
 55            80           -15.95045      5.678161      5.707908
 60            80           -16.99633      5.602767      5.626572
 65            80           -18.38101      5.141802      5.161057
 70            80           -20.13273      4.174004      4.190084
 75            80           -22.31333      2.484285      2.49865 
 80            80           -25.16519     -.397001      -.382538 
 85            80           -29.87566     -5.951051     -5.933495
 90            80           -999          -296.1247     -296.1141
 0             85           -22.1874      -1.026439     -.993324 
 5             85           -22.11978     -.89443       -.8618   
 10            85           -21.92738     -.508522      -.477309 
 15            85           -21.64007      .100539       .129531 
 20            85           -21.30256      .88246        .90864  
 25            85           -20.96814      1.772962      1.796004
 30            85           -20.69256      2.702591      2.722419
 35            85           -20.52949      3.604484      3.621216
 40            85           -20.52821      4.418199      4.432081
 45            85           -20.73304      5.089544      5.100893
 50            85           -21.1837       5.567678      5.576844
 55            85           -21.91562      5.800376      5.807718
 60            85           -22.95993      5.727171      5.733043
 65            85           -24.34361      5.268145      5.272891
 70            85           -26.09494      4.301992      4.305954
 75            85           -28.27568      2.613592      2.617129
 80            85           -31.12796     -.266732      -.263172 
 85            85           -35.83881     -5.820198     -5.815876
 90            85           -999          -291.1026     -291.0875
 0             90           -999          -.993324      -.993324 
 5             90           -292.6431     -.861206      -.861206 
 10            90           -286.5527     -.474979      -.474979 
 15            90           -283.5517      .134588       .134588 
 20            90           -281.5286      .917166       .917166 
 25            90           -280.3145      1.808436      1.808436
 30            90           -279.5937      2.738906      2.738906
 35            90           -279.316       3.641682      3.641682
 40            90           -279.7825      4.456294      4.456294
 45            90           -280.3867      5.128525      5.128525
 50            90           -280.8502      5.607514      5.607514
 55            90           -280.9048      5.841018      5.841018
 60            90           -279.1011      5.768549      5.768549
 65            90           -277.5993      5.310175      5.310175
 70            90           -276.1067      4.344576      4.344576
 75            90           -275.6049      2.656619      2.656619
 80            90           -276.4169     -.223382      -.223382 
 85            90           -279.8        -5.77665      -5.77665 
 90            90           -999          -999          -999     
 0             95           -22.1874      -1.026439     -.993324 
 5             95           -22.11978     -.89443       -.8618   
 10            95           -21.92738     -.508522      -.477309 
 15            95           -21.64007      .100539       .129531 
 20            95           -21.30256      .88246        .90864  
 25            95           -20.96814      1.772962      1.796004
 30            95           -20.69256      2.702591      2.722419
 35            95           -20.52949      3.604484      3.621216
 40            95           -20.52821      4.418199      4.432081
 45            95           -20.73304      5.089544      5.100893
 50            95           -21.1837       5.567678      5.576844
 55            95           -21.91562      5.800376      5.807718
 60            95           -22.95993      5.727171      5.733043
 65            95           -24.34361      5.268145      5.272891
 70            95           -26.09494      4.301992      4.305954
 75            95           -28.27568      2.613592      2.617129
 80            95           -31.12796     -.266732      -.263172 
 85            95           -35.83881     -5.820198     -5.815876
 90            95           -999          -999          -999     
 0             100          -16.19992     -1.126295     -.993324 
 5             100          -16.13261     -.99461       -.863566 
 10            100          -15.94117     -.609649      -.484235 
 15            100          -15.65538     -.002087       .114489 
 20            100          -15.31986      .777883       .883256 
 25            100          -14.9878       1.666103      1.758945
 30            100          -14.71482      2.593232      2.67321 
 35            100          -14.55449      3.492502      3.560064
 40            100          -14.55595      4.303553      4.359661
 45            100          -14.76342      4.972264      5.018175
 50            100          -15.21648      5.447855      5.484965
 55            100          -15.95045      5.678161      5.707908
 60            100          -16.99633      5.602767      5.626572
 65            100          -18.38101      5.141802      5.161057
 70            100          -20.13273      4.174004      4.190084
 75            100          -22.31333      2.484285      2.49865 
 80            100          -25.16519     -.397001      -.382538 
 85            100          -29.87566     -5.951051     -5.933495
 90            100          -999          -999          -999     
 0             105          -12.7334      -1.294448     -.993324 
 5             105          -12.66662     -1.163292     -.866451 
 10            105          -12.47673     -.779878      -.49556  
 15            105          -12.19342     -.174768       .08985  
 20            105          -11.86115      .602017       .841588 
 25            105          -11.53294      1.48651       1.697968
 30            105          -11.26422      2.409552      2.592047
 35            105          -11.10835      3.304535      3.458972
 40            105          -11.1143       4.111232      4.239699
 45            105          -11.32608      4.775635      4.880913
 50            105          -11.78308      5.24707       5.332282
 55            105          -12.5204       5.473464      5.541851
 60            105          -13.56885      5.394489      5.44928 
 65            105          -14.95516      4.930353      4.974716
 70            105          -16.7075       3.959863      3.996947
 75            105          -18.88787      2.267989      2.301143
 80            105          -21.73904     -.61487       -.581474 
 85            105          -26.44888     -6.169879     -6.129341
 90            105          -999          -999          -999     
 0             110          -10.31229     -1.533608     -.993324 
 5             110          -10.24623     -1.403169     -.870368 
 10            110          -10.05845     -1.021855     -.510962 
 15            110          -9.7785       -.420073       .056256 
 20            110          -9.450646      .352387       .784593 
 25            110          -9.127663      1.231816      1.614266
 30            110          -8.864728      2.149306      2.480231
 35            110          -8.714934      3.038463      3.319221
 40            110          -8.726985      3.83924       4.073342
 45            110          -8.944627      4.497787      4.690049
 50            110          -9.40697       4.963568      5.119491
 55            110          -10.14885      5.184641      5.309999
 60            110          -11.2008       5.100795      5.201392
 65            110          -12.58931      4.632346      4.713916
 70            110          -14.34249      3.658192      3.726473
 75            110          -16.52251      1.963385      2.024498
 80            110          -19.37272     -.921615      -.860014 
 85            110          -24.08168     -6.477927     -6.403167
 90            110          -999          -999          -999     
 0             115          -8.474359     -1.84781      -.993324 
 5             115          -8.409187     -1.718256     -.8752   
 10            115          -8.224002     -1.339531     -.530002 
 15            115          -7.9482       -.741853       .014594 
 20            115          -7.625795      .025269       .713615 
 25            115          -7.309267      .898451       1.509534
 30            115          -7.053472      1.809086      2.339641
 35            115          -6.91118       2.691047      3.142679
 40            115          -6.930769      3.484511      3.862283
 45            115          -7.155656      4.13582       4.446981
 50            115          -7.624609      4.594613      4.84763 
 55            115          -8.372116      4.809107      5.013011
 60            115          -9.428373      4.719238      4.88322 
 65            115          -10.8196       4.245453      4.378683
 70            115          -12.57378      3.266769      3.378489
 75            115          -14.75336      1.568333      1.668471
 80            115          -17.60234     -1.319315     -1.218292
 85            115          -22.31018     -6.877239     -6.754679
 90            115          -999          -291.9123     -291.8911
 0             120          -7.013924     -2.242711     -.993324 
 5             120          -6.949778     -2.114183     -.880802 
 10            120          -6.767604     -1.738458     -.552132 
 15            120          -6.496609     -1.145536     -.034018 
 20            120          -6.180523     -.384601       .630374 
 25            120          -5.871481      .481331       1.385991
 30            120          -5.623973      1.384012      2.172782
 35            120          -5.490391      2.257618      2.931888
 40            120          -5.518736      3.042588      3.608867
 45            120          -5.75204       3.685488      4.153667
 50            120          -6.228673      4.13616       4.518158
 55            120          -6.982718      4.343007      4.651809
 60            120          -8.043972      4.246135      4.495171
 65            120          -9.438331      3.766147      3.968987
 70            120          -11.19366      2.782193      2.952663
 75            120          -13.37266      1.079536      1.232606
 80            120          -16.22017     -1.811193     -1.656619
 85            120          -20.92667     -7.370991     -7.183573
 90            120          -999          -999          -999     
 0             125          -5.821498     -2.726033     -.993324 
 5             125          -5.758487     -2.598639     -.887006 
 10            125          -5.579646     -2.226234     -.576707 
 15            125          -5.313972     -1.638578     -.088245 
 20            125          -5.004883     -.884496       .536967 
 25            125          -4.704138     -.026594       1.2464  
 30            125          -4.465817      .867266       1.982853
 35            125          -4.341898      1.731607      2.690178
 40            125          -4.37996       2.507151      3.316231
 45            125          -4.622607      3.140718      3.812789
 50            125          -5.107765      3.582373      4.133108
 55            125          -5.869062      3.780725      4.227683
 60            125          -6.935852      3.676073      4.037799
 65            125          -8.333663      3.189191      3.484745
 70            125          -10.09022      2.199381      2.448445
 75            125          -12.26854      .492033       .716149 
 80            125          -15.11434     -2.402121     -2.17556 
 85            125          -19.81931     -7.964004     -7.689556
 90            125          -999          -292.1051     -292.0944
 0             130          -4.831974     -3.308245     -.993324 
 5             130          -4.770173     -3.182059     -.893625 
 10            130          -4.594884     -2.813193     -.603005 
 15            130          -4.334885     -2.231152     -.146563 
 20            130          -4.033262     -1.484382      .435847 
 25            130          -3.741373     -.635054       1.094087
 30            130          -3.512866      .249387       1.773825
 35            130          -3.399275      1.103826      2.421809
 40            130          -3.447728      1.869294      2.988524
 45            130          -3.700368      2.492877      3.427992
 50            130          -4.194645      2.924883      3.695325
 55            130          -4.963695      3.114144      3.742498
 60            130          -6.036392      3.001162      3.511949
 65            130          -7.437869      2.506898      2.925875
 70            130          -9.195696      1.510816      1.865058
 75            130          -11.37322     -.201557       .117995 
 80            130          -14.21713     -3.09938      -2.775981
 85            130          -18.92038     -8.663496     -8.272304
 90            130          -999          -999          -999     
 0             135          -4.003624     -4.003624     -.993324 
 5             135          -3.943071     -3.878686     -.900459 
 10            135          -3.771446     -3.51347      -.630243 
 15            135          -3.517303     -2.937224     -.207286 
 20            135          -3.223389     -2.198002      .329796 
 25            135          -2.94065      -1.357533      .932949 
 30            135          -2.722288     -.482828       1.550519
 35            135          -2.61938       .361369       2.132154
 40            135          -2.678587      1.11641       2.63118 
 45            135          -2.941573      1.729658      3.004257
 50            135          -3.44529       2.151671      3.20887 
 55            135          -4.222362      2.331514      3.199069
 60            135          -5.301159      2.209901      2.919052
 65            135          -6.7064        1.707985      2.292496
 70            135          -8.465493      .7054         1.201592
 75            135          -10.64213     -1.012183     -.563281 
 80            135          -13.484       -3.91381      -3.459004
 85            135          -18.18539     -9.480242     -8.931292
 90            135          -999          -999          -999     
 0             140          -3.308245     -4.831974     -.993324 
 5             140          -3.248939     -4.708283     -.9073   
 10            140          -3.08098      -4.346719     -.6576   
 15            140          -2.832697     -3.776271     -.268608 
 20            140          -2.5465       -3.044607      .221883 
 25            140          -2.272927     -2.213011      .767434 
 30            140          -2.064736     -1.348065      1.318666
 35            140          -1.972543     -.514139       1.827892
 40            140          -2.042543      .230439       2.251283
 45            140          -2.315915      .833312       2.548407
 50            140          -2.829109      1.245291      2.67964 
 55            140          -3.614228      1.415672      2.601818
 60            140          -4.699133      1.285385      2.261726
 65            140          -6.108121      .775778       1.585404
 70            140          -7.868433     -.233344       .457347 
 75            140          -10.04411     -1.956166     -1.329172
 80            140          -12.88384     -4.861618     -4.225732
 85            140          -17.5833      -10.43038     -9.665348
 90            140          -999          -999          -999     
 0             145          -2.726033     -5.821498     -.993324 
 5             145          -2.667938     -5.699016     -.91394  
 10            145          -2.503534     -5.340993     -.68424  
 15            145          -2.260936     -4.776172     -.328654 
 20            145          -1.982231     -4.051844      .115396 
 25            145          -1.717561     -3.228865      .602497 
 30            145          -1.519255     -2.373404      1.084935
 35            145          -1.437483     -1.549466      1.517186
 40            145          -1.517984     -.815067       1.85798 
 45            145          -1.801466     -.222292       2.069806
 50            145          -2.323883      .179916       2.116308
 55            145          -3.11683       .341081       1.957856
 60            145          -4.207665      .202343       1.544887
 65            145          -5.620269     -.314759       .807089 
 70            145          -7.381719     -1.330252     -.367308 
 75            145          -9.556389     -3.058182     -2.180493
 80            145          -12.39397     -5.967364     -5.076485
 85            145          -17.09146     -11.5384      -10.47168
 90            145          -999          -999          -999     
 0             150          -2.242711     -7.013924     -.993324 
 5             150          -2.185751     -6.892576     -.920177 
 10            150          -2.024683     -6.537878     -.70934  
 15            150          -1.787423     -5.978337     -.385532 
 20            150          -1.515755     -5.260901      .013754 
 25            150          -1.259453     -4.446021      .443495 
 30            150          -1.070443     -3.599479      .856888 
 35            150          -.998477      -2.784937      1.209809
 40            150          -1.088865     -2.060119      1.462903
 45            150          -1.381866     -1.476855      1.581199
 50            150          -1.91297      -1.083852      1.531645
 55            150          -2.713284     -.931371       1.278728
 60            150          -3.80969      -1.078076      .777733 
 65            150          -5.225671     -1.602245     -.036245 
 70            150          -6.988147     -2.623748     -1.269029
 75            150          -9.161807     -4.356494     -3.115607
 80            150          -11.99728     -7.269195     -6.008986
 85            150          -16.69287     -12.84237     -11.34387
 90            150          -999          -999          -999     
 0             155          -1.84781      -8.474359     -.993324 
 5             155          -1.791876     -8.354036     -.92582  
 10            155          -1.633824     -8.002343     -.732113 
 15            155          -1.401391     -7.447579     -.437396 
 20            155          -1.13609      -6.736377     -.079609 
 25            155          -.887362      -5.928829      .296022 
 30            155          -.706771      -5.090364      .642812 
 35            155          -.643693      -4.284336      .917101 
 40            155          -.743044      -3.568205      1.080463
 45            155          -1.044679     -2.993564      1.099593
 50            155          -1.583662     -2.608912      .944197 
 55            155          -2.390653     -2.464314      .582973 
 60            155          -3.492099     -2.618249     -.022932 
 65            155          -4.91112      -3.148835     -.930896 
 70            155          -6.674487     -4.175795     -2.237565
 75            155          -8.847179     -5.912916     -4.12651 
 80            155          -11.68069     -8.828813     -7.014446
 85            155          -16.37449     -14.40393     -12.26809
 90            155          -999          -999          -999     
 0             160          -1.533608     -10.31229     -.993324 
 5             160          -1.47856      -10.19285     -.930694 
 10            160          -1.323111     -9.843754     -.751839 
 15            160          -1.094847     -9.293115     -.482523 
 20            160          -.835047      -8.5873       -.161387 
 25            160          -.592867      -7.786088      .165681 
 30            160          -.419558      -6.954609      .451412 
 35            160          -.364169      -6.155948      .65167  
 40            160          -.471279      -5.447334      .727797 
 45            160          -.78039       -4.88016       .646838 
 50            160          -1.326193     -4.502741      .380007 
 55            160          -2.138964     -4.364971     -.100582 
 60            160          -3.244764     -4.525173     -.827651 
 65            160          -4.666398     -5.06132      -1.849071
 70            160          -6.430509     -6.093009     -3.248181
 75            160          -8.602322     -7.833924     -5.190851
 80            160          -11.43408     -10.75259     -8.06968 
 85            160          -16.12629     -16.3294      -13.21636
 90            160          -999          -999          -999     
 0             165          -1.294448     -12.7334      -.993324 
 5             165          -1.240119     -12.61468     -.934651 
 10            165          -1.086783     -12.26769     -.767886 
 15            165          -.861902      -11.72039     -.519374 
 20            165          -.606567      -11.01895     -.228553 
 25            165          -.369704      -10.22289      .057776 
 30            165          -.202311      -9.397082      .291308 
 35            165          -.153172      -8.604407      .426716 
 40            165          -.26659       -7.901904      .424067 
 45            165          -.581782      -7.340803      .249338 
 50            165          -1.133132     -6.969268     -.126507 
 55            165          -1.950599     -6.837053     -.729737 
 60            165          -3.059935     -7.002355     -1.588056
 65            165          -4.483681     -7.543028     -2.739056
 70            165          -6.248375     -8.578568     -4.248729
 75            165          -8.419445     -10.32257     -6.257285
 80            165          -11.24974     -13.24349     -9.122898
 85            165          -15.94064     -18.82168     -14.13621
 90            165          -999          -999          -999     
 0             170          -1.126295     -16.19992     -.993324 
 5             170          -1.072495     -16.08173     -.937568 
 10            170          -.920716      -15.73629     -.779736 
 15            170          -.698328      -15.19146     -.54667  
 20            170          -.446285      -14.49324     -.278531 
 25            170          -.213344      -13.70097     -.023029 
 30            170          -.050315      -12.87935      .170383 
 35            170          -.005787      -12.0911       .25492  
 40            170          -.123863      -11.3931       .18884  
 45            170          -.443542      -10.83649     -.063904 
 50            170          -.998988      -10.4693      -.534147 
 55            170          -1.819922     -10.34118     -1.248726
 60            170          -2.931864     -10.51025     -2.23279 
 65            170          -4.357162     -11.05427     -3.515195
 70            170          -6.122276     -12.09266     -5.143085
 75            170          -8.292781     -13.83894     -7.224556
 80            170          -11.12198     -16.76153     -10.07395
 85            170          -15.81189     -22.34073     -14.93979
 90            170          -999          -999          -999     
 0             175          -1.026439     -22.1874      -.993324 
 5             175          -.972964      -22.06954     -.939356 
 10            175          -.822139      -21.72504     -.787004 
 15            175          -.601278      -21.18173     -.563447 
 20            175          -.351252      -20.48549     -.309347 
 25            175          -.120713      -19.69554     -.073079 
 30            175           .03964       -18.87649      .095026 
 35            175           .08134       -18.09094      .146996 
 40            175          -.03959       -17.39571      .039515 
 45            175          -.362022      -16.84185     -.265426 
 50            175          -.919979      -16.47732     -.800833 
 55            175          -1.743039     -16.35173     -1.595296
 60            175          -2.856578     -16.5231      -2.673784
 65            175          -4.282825     -17.06917     -4.060002
 70            175          -6.04819      -18.10931     -5.78607 
 75            175          -8.218343     -19.85699     -7.930312
 80            175          -11.04686     -22.7806      -10.76487
 85            175          -15.73616     -28.36042     -15.50508
 90            175          -999          -999          -999     
 0             180          -.993324      -999          -.993324 
 5             180          -.939957      -999          -.939957 
 10            180          -.789453      -999          -.789453 
 15            180          -.569107      -999          -.569107 
 20            180          -.31976       -999          -.31976  
 25            180          -.090031      -999          -.090031 
 30            180           .069421      -999           .069421 
 35            180           .110169      -999           .110169 
 40            180          -.011724      -999          -.011724 
 45            180          -.335084      -999          -.335084 
 50            180          -.893887      -999          -.893887 
 55            180          -1.717663     -999          -1.717663
 60            180          -2.831739     -999          -2.831739
 65            180          -4.258306     -999          -4.258306
 70            180          -6.023755     -999          -6.023755
 75            180          -8.193788     -999          -8.193788
 80            180          -11.02208     -999          -11.02208
 85            180          -15.71117     -999          -15.71117
 90            180          -999          -999          -999     
 0             185          -1.026439     -22.1874      -.993324 
 5             185          -.972964      -22.06954     -.939356 
 10            185          -.822139      -21.72504     -.787004 
 15            185          -.601278      -21.18173     -.563447 
 20            185          -.351252      -20.48549     -.309347 
 25            185          -.120713      -19.69554     -.073079 
 30            185           .03964       -18.87649      .095026 
 35            185           .08134       -18.09094      .146996 
 40            185          -.03959       -17.39571      .039515 
 45            185          -.362022      -16.84185     -.265426 
 50            185          -.919979      -16.47732     -.800833 
 55            185          -1.743039     -16.35173     -1.595296
 60            185          -2.856578     -16.5231      -2.673784
 65            185          -4.282825     -17.06917     -4.060002
 70            185          -6.04819      -18.10931     -5.78607 
 75            185          -8.218343     -19.85699     -7.930312
 80            185          -11.04686     -22.7806      -10.76487
 85            185          -15.73616     -28.36042     -15.50508
 90            185          -999          -999          -999     
 0             190          -1.126295     -16.19992     -.993324 
 5             190          -1.072495     -16.08173     -.937568 
 10            190          -.920716      -15.73629     -.779736 
 15            190          -.698328      -15.19146     -.54667  
 20            190          -.446285      -14.49324     -.278531 
 25            190          -.213344      -13.70097     -.023029 
 30            190          -.050315      -12.87935      .170383 
 35            190          -.005787      -12.0911       .25492  
 40            190          -.123863      -11.3931       .18884  
 45            190          -.443542      -10.83649     -.063904 
 50            190          -.998988      -10.4693      -.534147 
 55            190          -1.819922     -10.34118     -1.248726
 60            190          -2.931864     -10.51025     -2.23279 
 65            190          -4.357162     -11.05427     -3.515195
 70            190          -6.122276     -12.09266     -5.143085
 75            190          -8.292781     -13.83894     -7.224556
 80            190          -11.12198     -16.76153     -10.07395
 85            190          -15.81189     -22.34073     -14.93979
 90            190          -999          -999          -999     
 0             195          -1.294448     -12.7334      -.993324 
 5             195          -1.240119     -12.61468     -.934651 
 10            195          -1.086783     -12.26769     -.767886 
 15            195          -.861902      -11.72039     -.519374 
 20            195          -.606567      -11.01895     -.228553 
 25            195          -.369704      -10.22289      .057776 
 30            195          -.202311      -9.397082      .291308 
 35            195          -.153172      -8.604407      .426716 
 40            195          -.26659       -7.901904      .424067 
 45            195          -.581782      -7.340803      .249338 
 50            195          -1.133132     -6.969268     -.126507 
 55            195          -1.950599     -6.837053     -.729737 
 60            195          -3.059935     -7.002355     -1.588056
 65            195          -4.483681     -7.543028     -2.739056
 70            195          -6.248375     -8.578568     -4.248729
 75            195          -8.419445     -10.32257     -6.257285
 80            195          -11.24974     -13.24349     -9.122898
 85            195          -15.94064     -18.82168     -14.13621
 90            195          -999          -999          -999     
 0             200          -1.533608     -10.31229     -.993324 
 5             200          -1.47856      -10.19285     -.930694 
 10            200          -1.323111     -9.843754     -.751839 
 15            200          -1.094847     -9.293115     -.482523 
 20            200          -.835047      -8.5873       -.161387 
 25            200          -.592867      -7.786088      .165681 
 30            200          -.419558      -6.954609      .451412 
 35            200          -.364169      -6.155948      .65167  
 40            200          -.471279      -5.447334      .727797 
 45            200          -.78039       -4.88016       .646838 
 50            200          -1.326193     -4.502741      .380007 
 55            200          -2.138964     -4.364971     -.100582 
 60            200          -3.244764     -4.525173     -.827651 
 65            200          -4.666398     -5.06132      -1.849071
 70            200          -6.430509     -6.093009     -3.248181
 75            200          -8.602322     -7.833924     -5.190851
 80            200          -11.43408     -10.75259     -8.06968 
 85            200          -16.12629     -16.3294      -13.21636
 90            200          -999          -999          -999     
 0             205          -1.84781      -8.474359     -.993324 
 5             205          -1.791876     -8.354036     -.92582  
 10            205          -1.633824     -8.002343     -.732113 
 15            205          -1.401391     -7.447579     -.437396 
 20            205          -1.13609      -6.736377     -.079609 
 25            205          -.887362      -5.928829      .296022 
 30            205          -.706771      -5.090364      .642812 
 35            205          -.643693      -4.284336      .917101 
 40            205          -.743044      -3.568205      1.080463
 45            205          -1.044679     -2.993564      1.099593
 50            205          -1.583662     -2.608912      .944197 
 55            205          -2.390653     -2.464314      .582973 
 60            205          -3.492099     -2.618249     -.022932 
 65            205          -4.91112      -3.148835     -.930896 
 70            205          -6.674487     -4.175795     -2.237565
 75            205          -8.847179     -5.912916     -4.12651 
 80            205          -11.68069     -8.828813     -7.014446
 85            205          -16.37449     -14.40393     -12.26809
[...]
 5             285          -13.50148     -1.998054     -1.701219
 10            285          -13.26552     -1.566506     -1.282324
 15            285          -12.9099      -.881776      -.617717 
 20            285          -12.48568      .000685       .239014 
 25            285          -12.05386      1.006852      1.216358
 30            285          -11.67757      2.056351      2.236387
 35            285          -11.41624      3.073602      3.225373
 40            285          -11.32286      3.99288       4.118744
 45            285          -11.44363      4.757647      4.860567
 50            285          -11.81882      5.316599      5.39979 
 55            285          -12.48371      5.618017      5.68474 
 60            285          -13.46899      5.602305      5.655758
 65            285          -14.80148      5.190466      5.233759
 70            285          -16.51004      4.262015      4.29822 
 75            285          -18.65808      2.602497      2.634864
 80            285          -21.48966     -.257267      -.22469  
 85            285          -26.1918      -5.798154     -5.758668
 90            285          -999          -299.4781     -299.183 
 0             290          -11.16294     -2.384256     -1.843973
 5             290          -11.08116     -2.238002     -1.705211
 10            290          -10.84751     -1.808761     -1.298107
 15            290          -10.49558     -1.127679     -.652333 
 20            290          -10.07618     -.249936       .180077 
 25            290          -9.650045      .750747       1.129728
 30            290          -9.280004      1.794277      2.12081 
 35            290          -9.025208      2.805306      3.081276
 40            290          -8.938354      3.718291      3.947694
 45            290          -9.065361      4.47685       4.664838
 50            290          -9.446207      5.029821      5.182067
 55            290          -10.11586      5.325613      5.447936
 60            290          -11.10472      5.304753      5.40291 
 65            290          -12.43935      4.888357      4.967978
 70            290          -14.14852      3.956038      4.022717
 75            290          -16.29584      2.293421      2.353106
 80            290          -19.126       -.568605      -.508482 
 85            290          -23.82687     -6.110867     -6.037999
 90            290          -999          -999          -999     
 0             295          -9.325007     -2.698458     -1.843973
 5             295          -9.244201     -2.553176     -1.710136
 10            295          -9.013407     -2.126779     -1.317617
 15            295          -8.66602      -1.450197     -.695264 
 20            295          -8.252572     -.578277       .10667  
 25            295          -7.83345       .415637       1.021312
 30            295          -7.471131      1.451799      1.975454
 35            295          -7.224405      2.455141      2.899197
 40            295          -7.145618      3.36035       3.730639
 45            295          -7.280334      4.111235      4.41555 
 50            295          -7.668167      4.65681       4.90391 
 55            295          -8.343704      4.945645      5.144649
 60            295          -9.33698       4.918419      5.078455
 65            295          -10.67425      4.496386      4.626463
 70            295          -12.38415      3.559279      3.668417
 75            295          -14.53054      1.892829      1.990675
 80            295          -17.35889     -.971994      -.873332 
 85            295          -22.05815     -6.51596      -6.396403
 90            295          -999          -999          -999     
 0             300          -7.864572     -3.09336      -1.843973
 5             300          -7.784893     -2.949204     -1.715846
 10            300          -7.557404     -2.526102     -1.340291
 15            300          -7.215284     -1.854736     -.745356 
 20            300          -6.808737     -.989568       .020572 
 25            300          -6.397755     -.003507       .893391 
 30            300          -6.0444        1.024101      1.802879
 35            300          -5.807047      2.018518      2.68172 
 40            300          -5.737634      2.914693      3.469948
 45            300          -5.881309      3.656661      4.114681
 50            300          -6.277261      4.193637      4.566803
 55            300          -6.959635      4.474383      4.775838
 60            300          -7.95803       4.439753      4.682858
 65            300          -9.298337      4.011162      4.209265
 70            300          -11.00904      3.068486      3.235086
 75            300          -13.15431      1.397575      1.54723 
 80            300          -15.98051     -1.470504     -1.319423
 85            300          -20.67784     -7.01645      -6.833445
 90            300          -999          -296.5775     -296.2215
 0             305          -6.672147     -3.576682     -1.843973
 5             305          -6.593713     -3.433772     -1.722169
 10            305          -6.369882     -3.014317     -1.36547 
 15            305          -6.033593     -2.348725     -.801235 
 20            305          -5.634689     -1.491037     -.076055 
 25            305          -5.23273      -.513679       .748808 
 30            305          -4.889315      .504445       1.60636 
 35            305          -4.662363      1.488959      2.432228
 40            305          -4.603356      2.375107      3.168794
 45            305          -4.756981      3.107173      3.764931
 50            305          -5.161947      3.634599      4.172796
 55            305          -5.851907      3.906357      4.342824
 60            305          -6.855973      3.863498      4.216727
 65            305          -8.199624      3.427618      3.716381
 70            305          -9.911182      2.47875       2.722283
 75            305          -12.05514      .802879       1.022146
 80            305          -14.87887     -2.06882      -1.847179
 85            305          -19.574       -7.61697      -7.348684
 90            305          -999          -999          -999     
 0             310          -5.682623     -4.158893     -1.843973
 5             310          -5.605518     -4.017311     -1.728915
 10            310          -5.385586     -3.601744     -1.392414
 15            310          -5.055516     -2.94231      -.86133  
 20            310          -4.664768     -2.092602     -.18068  
 25            310          -4.272442     -1.124537      .59099  
 30            310          -3.939649     -.116547       1.389967
 35            310          -3.723817      .857382       2.155058
 40            310          -3.675941      1.732805      2.831367
 45            310          -3.840212      2.454277      3.369963
 50            310          -4.254824      2.97148       3.724743
 55            310          -4.952896      3.233615      3.847487
 60            310          -5.96301       3.181943      3.680943
 65            310          -7.310205      2.738253      3.147797
 70            310          -9.022619      1.782751      2.129331
 75            310          -11.1651       .101566       .414448 
 80            310          -13.9861      -2.774013     -2.457316
 85            310          -18.67879     -8.324526     -7.941637
 90            310          -999          -299.0609     -298.5763
 0             315          -4.854273     -4.854273     -1.843973
 5             315          -4.778539     -4.71406      -1.73588 
 10            315          -4.562629     -4.302504     -1.420319
 15            315          -4.238977     -3.649426     -.923905 
 20            315          -3.856652     -2.807959     -.290428 
 25            315          -3.47428      -1.849496      .423956 
 30            315          -3.152471     -.851983       1.158648
 35            315          -2.948146      .110993       1.855687
 40            315          -2.911794      .975316       2.463165
 45            315          -3.087091      1.685815      2.934779
 50            315          -3.511693      2.192428      3.226696
 55            315          -4.218158      2.444589      3.292631
 60            315          -5.234518      2.383781      3.076944
 65            315          -6.585344      1.931993      2.503673
 70            315          -8.298584      .969611       1.455401
 75            315          -10.43945     -.717088      -.277174 
 80            315          -13.25753     -3.596692     -3.150814
 85            315          -17.94761     -9.149655     -8.611622
 90            315          -999          -299.2679     -299.1717
 0             320          -4.158893     -5.682623     -1.843973
 5             320          -4.08453      -5.54378      -1.742852
 10            320          -3.872644     -5.136236     -1.448345
 15            320          -3.555414     -4.489518     -.9871   
 20            320          -3.181523     -3.656303     -.402128 
 25            320          -2.809126     -2.707461      .252304 
 30            320          -2.49833      -1.720453      .918301 
 35            320          -2.305551     -.768464       1.540943
 40            320          -2.28077       .084715       2.071373
 45            320          -2.46714       .784197       2.466241
 50            320          -2.901773      1.280169      2.684538
 55            320          -3.616661      1.522307      2.682633
 60            320          -4.639272      1.452314      2.407309
 65            320          -5.993706      .992383       1.784798
 70            320          -7.707713      .02308        .69983  
 75            320          -9.846871     -1.669163     -1.05413 
 80            320          -12.66192     -4.552818     -3.928663
 85            320          -17.3493      -10.10825     -9.357329
 90            320          -999          -999          -999     
 0             325          -3.576682     -6.672147     -1.843973
 5             325          -3.503648     -6.534633     -1.749619
 10            325          -3.295664     -6.130979     -1.475636
 15            325          -2.984666     -5.490432     -1.048981
 20            325          -2.618962     -4.665228     -.512376 
 25            325          -2.256256     -3.725734      .081162 
 30            325          -1.956168     -2.748938      .675811 
 35            325          -1.774623     -1.807636      1.219202
 40            325          -1.761104     -.965301       1.6653  
 45            325          -1.958256     -.276548       1.973795
 50            325          -2.402657      .20906        2.106938
 55            325          -3.125739      .441429       2.024536
 60            325          -4.154418      .362484       1.676858
 65            325          -5.512326     -.105386       .99358  
 70            325          -7.227019     -1.081437     -.137047 
 75            325          -9.364434     -2.77909      -1.917216
 80            325          -12.17644     -5.666695     -4.791116
 85            325          -16.8611      -11.22453     -10.17586
 90            325          -999          -298.964      -298.5733
 0             330          -3.09336      -7.864572     -1.843973
 5             330          -3.021572     -7.728305     -1.755975
 10            330          -2.817251     -7.328303     -1.501348
 15            330          -2.512104     -6.69355      -1.107598
 20            330          -2.154092     -5.875873     -.617634 
 25            330          -1.800496     -4.945164     -.083912 
 30            330          -1.51048      -3.977974      .439007 
 35            330          -1.339509     -3.04673       .900535 
 40            330          -1.336598     -2.214606      1.256848
 45            330          -1.543908     -1.535961      1.470367
 50            330          -1.99751      -1.060121      1.506726
 55            330          -2.728306     -.83696        1.329823
 60            330          -3.762683     -.924349       .894646 
 65            330          -5.123829     -1.399706      .136054 
 70            330          -6.839113     -2.382125     -1.052025
 75            330          -8.974812     -4.084882     -2.864871
 80            330          -11.78387     -6.976215     -5.735908
 85            330          -16.46589     -12.53632     -11.06074
 90            330          -999          -292.7731     -292.7319
 0             335          -2.698458     -9.325007     -1.843973
 5             335          -2.627798     -9.189866     -1.761725
 10            335          -2.426788     -8.793166     -1.524676
 15            335          -2.126932     -8.163653     -1.161051
 20            335          -1.77588      -7.352786     -.714341 
 25            335          -1.430531     -6.430032     -.237101 
 30            335          -1.149642     -5.471543      .216506 
 35            335          -.988256      -4.549416      .596687 
 40            335          -.994966      -3.726552      .860852 
 45            335          -1.211493     -3.057076      .973324 
 50            335          -1.673442     -2.590101      .902668 
 55            335          -2.411231     -2.3753        .617072 
 60            335          -3.450761     -2.470356      .077348 
 65            335          -4.814816     -2.952516     -.7743   
 70            335          -6.53059      -3.940719     -2.035093
 75            335          -8.664668     -5.648113     -3.889285
 80            335          -11.47097     -8.542833     -6.75436 
 85            335          -16.15054     -14.105       -11.99814
 90            335          -999          -999          -999     
 0             340          -2.384256     -11.16294     -1.843973
 5             340          -2.314569     -11.02877     -1.766693
 10            340          -2.116417     -10.63492     -1.544881
 15            340          -1.821132     -10.00993     -1.207562
 20            340          -1.476094     -9.20495      -.799065 
 25            340          -1.137876     -8.289074     -.372566 
 30            340          -.864881      -7.338112      .017388 
 35            340          -.711791      -6.423874      .32079  
 40            340          -.726832      -5.609027      .495075 
 45            340          -.951341      -4.947493      .50516  
 50            340          -1.42052      -4.488198      .321351 
 55            340          -2.164361     -4.280642     -.084551 
 60            340          -3.208343     -4.382344     -.745494 
 65            340          -4.574894     -4.870401     -1.709835
 70            340          -6.291055     -5.86362      -3.061781
 75            340          -8.423682     -7.575036     -4.968363
 80            340          -11.22755     -10.47269     -7.823441
 85            340          -15.90494     -16.03665     -12.96   
 90            340          -999          -999          -999     
 0             345          -2.145097     -13.58405     -1.843973
 5             345          -2.076199     -13.45067     -1.770725
 10            345          -1.880367     -13.05913     -1.561317
 15            345          -1.58879      -12.43782     -1.245544
 20            345          -1.248635     -11.63761     -.868664 
 25            345          -.916208      -10.72732     -.484766 
 30            345          -.649628      -9.782474     -.149312 
 35            345          -.503283      -8.874649      .086668 
 40            345          -.525099      -8.066321      .179521 
 45            345          -.756101      -7.411246      .093291 
 50            345          -1.231161     -6.958201     -.20174  
 55            345          -1.979922     -6.756541     -.731886 
 60            345          -3.027518     -6.863654     -1.52482 
 65            345          -4.396083     -7.356512     -2.618483
 70            345          -6.112534     -8.353816     -4.079868
 75            345          -8.243947     -10.06851     -6.050807
 80            345          -11.04579     -12.96856     -8.891324
 85            345          -15.72139     -18.53397     -13.89356
 90            345          -999          -999          -999     
 0             350          -1.976943     -17.05057     -1.843973
 5             350          -1.908627     -16.91777     -1.773697
 10            350          -1.714504     -16.52794     -1.573455
 15            350          -1.425661     -15.90933     -1.273678
 20            350          -1.089105     -15.11265     -.920461 
 25            350          -.76095       -14.20647     -.568823 
 30            350          -.499103      -13.26614     -.275312 
 35            350          -.357737      -12.36305     -.092328 
 40            350          -.384554      -11.55953     -.065236 
 45            350          -.620351      -10.90923     -.231906 
 50            350          -1.099754     -10.4608      -.623696 
 55            350          -1.852147     -10.26349     -1.267253
 60            350          -2.902406     -10.3746      -2.187379
 65            350          -4.272449     -10.87101     -3.412951
 70            350          -5.9891       -11.87133     -4.991972
 75            350          -8.119597     -13.58845     -7.034396
 80            350          -10.91993     -16.49027     -9.856963
 85            350          -15.59417     -22.05676     -14.70994
 90            350          -999          -999          -999     
 0             355          -1.877088     -23.03805     -1.843973
 5             355          -1.809128     -22.90561     -1.775519
 10            355          -1.616051     -22.51682     -1.580899
 15            355          -1.328883     -21.89987     -1.29097 
 20            355          -.994533      -21.10535     -.952403 
 25            355          -.668996      -20.2017      -.6209   
 30            355          -.41005       -19.26413     -.353872 
 35            355          -.271736      -18.36394     -.204868 
 40            355          -.301621      -17.56338     -.220793 
 45            355          -.540359      -16.916       -.441443 
 50            355          -1.022425     -16.4704      -.900283 
 55            355          -1.777045     -16.27577     -1.625578
 60            355          -2.828936     -16.38933     -2.641717
 65            355          -4.199881     -16.88792     -3.972088
 70            355          -5.916649     -17.89009     -5.649344
 75            355          -8.046576     -19.60869     -7.753594
 80            355          -10.84597     -22.51159     -10.55966
 85            355          -15.51938     -28.07875     -15.28492
 90            355          -999          -999          -999     
 0             360          -1.843973     -999          -1.843973
 5             360          -1.776132     -999          -1.776132
 10            360          -1.583408     -999          -1.583408
 15            360          -1.296804     -999          -1.296804
 20            360          -.963197      -999          -.963197 
 25            360          -.638542      -999          -.638542 
 30            360          -.380573      -999          -.380573 
 35            360          -.243288      -999          -.243288 
 40            360          -.274207      -999          -.274207 
 45            360          -.513936      -999          -.513936 
 50            360          -.996899      -999          -.996899 
 55            360          -1.752269     -999          -1.752269
 60            360          -2.80471      -999          -2.80471 
 65            360          -4.175959     -999          -4.175959
 70            360          -5.892764     -999          -5.892764
 75            360          -8.022498     -999          -8.022498
 80            360          -10.82157     -999          -10.82157
 85            360          -15.4947      -999          -15.4947 
 90            360          -999          -999          -999     
