                   ****************************************
                     MINI-NUMERICAL ELECTROMAGNETICS CODE
                                   MININEC
                       2024-05-29              10:40:13
                   ****************************************
 
FREQUENCY (MHZ): 7 
    WAVE LENGTH =  42.82857  METERS
 
ENVIRONMENT (+1 FOR FREE SPACE, -1 FOR GROUND PLANE): -1 
 NUMBER OF MEDIA (0 FOR PERFECTLY CONDUCTING GROUND):  0 
 
NO. OF WIRES: 7 
 
WIRE NO. 1 
            COORDINATES                                 END         NO. OF
   X             Y             Z          RADIUS     CONNECTION     SEGMENTS
 0             4.998720E-02  10.51999                    0 
 0            -4.998720E-02  10.51999      2.011680E-03  0             2 
 
WIRE NO. 2 
            COORDINATES                                 END         NO. OF
   X             Y             Z          RADIUS     CONNECTION     SEGMENTS
-5             9.172011      3.509985                    0 
 0             4.998720E-02  10.51999      2.011680E-03  1             16 
 
WIRE NO. 3 
            COORDINATES                                 END         NO. OF
   X             Y             Z          RADIUS     CONNECTION     SEGMENTS
 0            -4.998720E-02  10.51999                    1 
 5            -9.172011      3.509985      2.011680E-03  0             16 
 
WIRE NO. 4 
            COORDINATES                                 END         NO. OF
   X             Y             Z          RADIUS     CONNECTION     SEGMENTS
 4.032992      7.397008      4.86598                     0 
 0             4.998720E-02  10.51999      2.011680E-03  1             16 
 
WIRE NO. 5 
            COORDINATES                                 END         NO. OF
   X             Y             Z          RADIUS     CONNECTION     SEGMENTS
 0            -4.998720E-02  10.51999                    1 
-4.032992     -7.397008      4.86598       2.011680E-03  0             16 
 
WIRE NO. 6 
            COORDINATES                                 END         NO. OF
   X             Y             Z          RADIUS     CONNECTION     SEGMENTS
 0             4.194993      7.313981                    0 
 0             4.998720E-02  10.51999      2.011680E-03  1             8 
 
WIRE NO. 7 
            COORDINATES                                 END         NO. OF
   X             Y             Z          RADIUS     CONNECTION     SEGMENTS
 0            -4.998720E-02  10.51999                    1 
 0            -4.194993      7.313981      2.011680E-03  0             8 
 
                  **** ANTENNA GEOMETRY ****
 
WIRE NO.  1  COORDINATES                                CONNECTION PULSE
X             Y             Z             RADIUS        END1 END2  NO.
 0             0             10.51999      2.011680E-03   0    0    1
 
WIRE NO.  2  COORDINATES                                CONNECTION PULSE
X             Y             Z             RADIUS        END1 END2  NO.
-4.6875        8.601885      3.948111      2.011680E-03   0    2    2
-4.375         8.031758      4.386236      2.011680E-03   2    2    3
-4.0625        7.461632      4.824361      2.011680E-03   2    2    4
-3.75          6.891505      5.262486      2.011680E-03   2    2    5
-3.4375        6.321379      5.700612      2.011680E-03   2    2    6
-3.125         5.751252      6.138737      2.011680E-03   2    2    7
-2.8125        5.181126      6.576862      2.011680E-03   2    2    8
-2.5           4.610999      7.014987      2.011680E-03   2    2    9
-2.1875        4.040873      7.453112      2.011680E-03   2    2   10
-1.875         3.470746      7.891238      2.011680E-03   2    2   11
-1.5625        2.90062       8.329363      2.011680E-03   2    2   12
-1.25          2.330493      8.767488      2.011680E-03   2    2   13
-.9375         1.760367      9.205613      2.011680E-03   2    2   14
-.625          1.19024       9.643739      2.011680E-03   2    2   15
-.3125         .6201137      10.08186      2.011680E-03   2    2   16
 0             4.998720E-02  10.51999      2.011680E-03   2    1   17
 
WIRE NO.  3  COORDINATES                                CONNECTION PULSE
X             Y             Z             RADIUS        END1 END2  NO.
 0            -4.998720E-02  10.51999      2.011680E-03   1    3   18
 .3125        -.6201137      10.08186      2.011680E-03   3    3   19
 .625         -1.19024       9.643739      2.011680E-03   3    3   20
 .9375        -1.760367      9.205613      2.011680E-03   3    3   21
 1.25         -2.330493      8.767488      2.011680E-03   3    3   22
 1.5625       -2.90062       8.329363      2.011680E-03   3    3   23
 1.875        -3.470746      7.891238      2.011680E-03   3    3   24
 2.1875       -4.040873      7.453112      2.011680E-03   3    3   25
 2.5          -4.610999      7.014987      2.011680E-03   3    3   26
 2.8125       -5.181126      6.576862      2.011680E-03   3    3   27
 3.125        -5.751252      6.138737      2.011680E-03   3    3   28
 3.4375       -6.321379      5.700612      2.011680E-03   3    3   29
 3.75         -6.891505      5.262486      2.011680E-03   3    3   30
 4.0625       -7.461632      4.824361      2.011680E-03   3    3   31
 4.375        -8.031758      4.386236      2.011680E-03   3    3   32
 4.6875       -8.601885      3.948111      2.011680E-03   3    0   33
 
WIRE NO.  4  COORDINATES                                CONNECTION PULSE
X             Y             Z             RADIUS        END1 END2  NO.
 3.78093       6.93782       5.219355      2.011680E-03   0    4   34
 3.528868      6.478631      5.572731      2.011680E-03   4    4   35
 3.276806      6.019442      5.926106      2.011680E-03   4    4   36
 3.024744      5.560253      6.279482      2.011680E-03   4    4   37
 2.772682      5.101064      6.632858      2.011680E-03   4    4   38
 2.52062       4.641875      6.986233      2.011680E-03   4    4   39
 2.268558      4.182687      7.339609      2.011680E-03   4    4   40
 2.016496      3.723498      7.692984      2.011680E-03   4    4   41
 1.764434      3.264309      8.04636       2.011680E-03   4    4   42
 1.512372      2.80512       8.399736      2.011680E-03   4    4   43
 1.26031       2.345931      8.753111      2.011680E-03   4    4   44
 1.008248      1.886742      9.106487      2.011680E-03   4    4   45
 .7561859      1.427554      9.459862      2.011680E-03   4    4   46
 .504124       .9683648      9.813238      2.011680E-03   4    4   47
 .252062       .509176       10.16661      2.011680E-03   4    4   48
 0             4.998720E-02  10.51999      2.011680E-03   4    1   49
 
WIRE NO.  5  COORDINATES                                CONNECTION PULSE
X             Y             Z             RADIUS        END1 END2  NO.
 0            -4.998720E-02  10.51999      2.011680E-03   1    5   50
-.252062      -.509176       10.16661      2.011680E-03   5    5   51
-.504124      -.9683648      9.813238      2.011680E-03   5    5   52
-.7561859     -1.427554      9.459862      2.011680E-03   5    5   53
-1.008248     -1.886742      9.106487      2.011680E-03   5    5   54
-1.26031      -2.345931      8.753111      2.011680E-03   5    5   55
-1.512372     -2.80512       8.399736      2.011680E-03   5    5   56
-1.764434     -3.264309      8.04636       2.011680E-03   5    5   57
-2.016496     -3.723498      7.692984      2.011680E-03   5    5   58
-2.268558     -4.182687      7.339609      2.011680E-03   5    5   59
-2.52062      -4.641875      6.986233      2.011680E-03   5    5   60
-2.772682     -5.101064      6.632858      2.011680E-03   5    5   61
-3.024744     -5.560253      6.279482      2.011680E-03   5    5   62
-3.276806     -6.019442      5.926106      2.011680E-03   5    5   63
-3.528868     -6.478631      5.572731      2.011680E-03   5    5   64
-3.78093      -6.93782       5.219355      2.011680E-03   5    0   65
 
WIRE NO.  6  COORDINATES                                CONNECTION PULSE
X             Y             Z             RADIUS        END1 END2  NO.
 0             3.676867      7.714732      2.011680E-03   0    6   66
 0             3.158741      8.115483      2.011680E-03   6    6   67
 0             2.640616      8.516234      2.011680E-03   6    6   68
 0             2.12249       8.916985      2.011680E-03   6    6   69
 0             1.604364      9.317736      2.011680E-03   6    6   70
 0             1.086239      9.718487      2.011680E-03   6    6   71
 0             .5681129      10.11924      2.011680E-03   6    6   72
 0             4.998720E-02  10.51999      2.011680E-03   6    1   73
 
WIRE NO.  7  COORDINATES                                CONNECTION PULSE
X             Y             Z             RADIUS        END1 END2  NO.
 0            -4.998720E-02  10.51999      2.011680E-03   1    7   74
 0            -.5681129      10.11924      2.011680E-03   7    7   75
 0            -1.086239      9.718487      2.011680E-03   7    7   76
 0            -1.604364      9.317736      2.011680E-03   7    7   77
 0            -2.12249       8.916985      2.011680E-03   7    7   78
 0            -2.640616      8.516234      2.011680E-03   7    7   79
 0            -3.158741      8.115483      2.011680E-03   7    7   80
 0            -3.676867      7.714732      2.011680E-03   7    0   81
 
NO. OF SOURCES :  1 
PULSE NO., VOLTAGE MAGNITUDE, PHASE (DEGREES):  1 , 1 , 0 
NUMBER OF LOADS 2 
PULSE NO., ORDER OF S-PARAMETER FUNCTION:  5 , 1 
NUMERATOR, DENOMINATOR COEFFICIENTS OF S^ 0 : .1 , 1 
NUMERATOR, DENOMINATOR COEFFICIENTS OF S^ 1 : 60 , 0 
NUMERATOR, DENOMINATOR COEFFICIENTS OF S^:  30 , 1 
NUMERATOR, DENOMINATOR COEFFICIENTS OF S^ 0 : .1 , 1 
NUMERATOR, DENOMINATOR COEFFICIENTS OF S^ 1 : 60 , 0 
 
********************    SOURCE DATA     ********************
PULSE  1      VOLTAGE = ( 1 , 0 J)
              CURRENT = ( 2.542247E-02 ,-9.614098E-04 J)
              IMPEDANCE = ( 39.27911 , 1.485431 J)
              POWER =  1.271124E-02  WATTS
 
********************    CURRENT DATA    ********************
 
WIRE NO.  1 :
PULSE         REAL          IMAGINARY     MAGNITUDE     PHASE
 NO.          (AMPS)        (AMPS)        (AMPS)        (DEGREES)
J              2.543555E-02 -9.673359E-04  2.545394E-02 -2.177958 
 1             2.542247E-02 -9.614098E-04  2.544064E-02 -2.165741 
J              2.543555E-02 -9.673359E-04  2.545394E-02 -2.177958 
 
WIRE NO.  2 :
PULSE         REAL          IMAGINARY     MAGNITUDE     PHASE
 NO.          (AMPS)        (AMPS)        (AMPS)        (DEGREES)
E              0             0             0             0 
 2            -3.144077E-04 -2.315994E-05  3.152596E-04 -175.7871 
 3            -6.325126E-04 -3.499706E-05  6.334800E-04 -176.833 
 4            -9.821347E-04 -3.710630E-05  9.828354E-04 -177.8363 
 5            -1.430721E-03 -3.087319E-05  1.431054E-03 -178.7638 
 6            -6.368804E-04  1.273822E-05  6.370077E-04  178.8542 
 7             4.768725E-05  6.467417E-05  8.035436E-05  53.59693 
 8             6.786296E-04  1.260700E-04  6.902404E-04  10.52395 
 9             1.260032E-03  1.967877E-04  1.275306E-03  8.876563 
 10            1.788375E-03  2.763350E-04  1.809598E-03  8.783727 
 11            2.258081E-03  3.639509E-04  2.287223E-03  9.156024 
 12            2.664340E-03  4.586275E-04  2.703524E-03  9.766923 
 13            3.004826E-03  5.591658E-04  3.056411E-03  10.54155 
 14            3.279181E-03  6.642757E-04  3.345787E-03  11.45165 
 15            3.487753E-03  7.725545E-04  3.572291E-03  12.48964 
 16            3.628731E-03  8.795764E-04  3.733811E-03  13.62526 
J              3.621763E-03  8.767133E-04  3.726365E-03  13.60772 
 
WIRE NO.  3 :
PULSE         REAL          IMAGINARY     MAGNITUDE     PHASE
 NO.          (AMPS)        (AMPS)        (AMPS)        (DEGREES)
J              3.621744E-03  8.767089E-04  3.726345E-03  13.60772 
 19            3.628712E-03  8.795721E-04  3.733791E-03  13.62527 
 20            3.487734E-03  7.725503E-04  3.572271E-03  12.48964 
 21            3.279163E-03  6.642716E-04  3.345768E-03  11.45164 
 22            3.004809E-03  5.591619E-04  3.056393E-03  10.54154 
 23            2.664324E-03  4.586239E-04  2.703508E-03  9.766905 
 24            2.258067E-03  3.639478E-04  2.287209E-03  9.156002 
 25            1.788364E-03  2.763324E-04  1.809587E-03  8.783701 
 26            1.260024E-03  1.967858E-04  1.275298E-03  8.876536 
 27            6.786253E-04  1.260690E-04  6.902359E-04  10.52394 
 28            4.768675E-05  6.467404E-05  8.035396E-05  53.59717 
 29           -6.368767E-04  1.273905E-05  6.370041E-04  178.8541 
 30           -1.430713E-03 -3.087125E-05  1.431046E-03 -178.7639 
 31           -9.821287E-04 -3.710494E-05  9.828293E-04 -177.8364 
 32           -6.325085E-04 -3.499617E-05  6.334759E-04 -176.8331 
 33           -3.144056E-04 -2.315948E-05  3.152574E-04 -175.7871 
E              0             0             0             0 
 
WIRE NO.  4 :
PULSE         REAL          IMAGINARY     MAGNITUDE     PHASE
 NO.          (AMPS)        (AMPS)        (AMPS)        (DEGREES)
E              0             0             0             0 
 34            2.288491E-03 -3.548708E-04  2.315842E-03 -8.814514 
 35            4.344613E-03 -6.648379E-04  4.395187E-03 -8.700241 
 36            6.284466E-03 -9.485361E-04  6.355646E-03 -8.583064 
 37            8.121068E-03 -1.208214E-03  8.210452E-03 -8.462124 
 38            9.851977E-03 -1.443712E-03  9.957196E-03 -8.336806 
 39            1.146968E-02 -1.654142E-03  1.158835E-02 -8.206537 
 40            1.296474E-02 -1.838399E-03  1.309444E-02 -8.070728 
 41            1.432718E-02 -1.995374E-03  1.446547E-02 -7.928691 
 42            1.554756E-02 -2.124064E-03  1.569198E-02 -7.779429 
 43            1.661790E-02 -2.223619E-03  1.676601E-02 -7.6214 
 44            1.753204E-02 -2.293330E-03  1.768140E-02 -7.452428 
 45            1.828541E-02 -2.332570E-03  1.843359E-02 -7.269645 
 46            1.887479E-02 -2.340611E-03  1.901936E-02 -7.069004 
 47            1.929864E-02 -2.315958E-03  1.943711E-02 -6.843127 
 48            1.956718E-02 -2.245280E-03  1.969558E-02 -6.545904 
J              1.870670E-02 -3.243017E-03  1.898573E-02 -9.835117 
 
WIRE NO.  5 :
PULSE         REAL          IMAGINARY     MAGNITUDE     PHASE
 NO.          (AMPS)        (AMPS)        (AMPS)        (DEGREES)
J              1.870672E-02 -3.243014E-03  1.898574E-02 -9.835099 
 51            1.956720E-02 -2.245276E-03  1.969559E-02 -6.545887 
 52            1.929866E-02 -2.315954E-03  1.943713E-02 -6.843111 
 53            1.887481E-02 -2.340607E-03  1.901938E-02 -7.068988 
 54            1.828543E-02 -2.332566E-03  1.843360E-02 -7.269629 
 55            1.753206E-02 -2.293327E-03  1.768141E-02 -7.452412 
 56            1.661791E-02 -2.223616E-03  1.676602E-02 -7.621384 
 57            1.554757E-02 -2.124062E-03  1.569199E-02 -7.779413 
 58            1.432719E-02 -1.995371E-03  1.446548E-02 -7.928675 
 59            1.296475E-02 -1.838397E-03  1.309445E-02 -8.070712 
 60            1.146969E-02 -1.654140E-03  1.158836E-02 -8.20652 
 61            9.851985E-03 -1.443710E-03  9.957203E-03 -8.33679 
 62            8.121074E-03 -1.208212E-03  8.210458E-03 -8.462108 
 63            6.284471E-03 -9.485350E-04  6.355651E-03 -8.583048 
 64            4.344616E-03 -6.648372E-04  4.395190E-03 -8.700225 
 65            2.288493E-03 -3.548704E-04  2.315844E-03 -8.814498 
E              0             0             0             0 
 
WIRE NO.  6 :
PULSE         REAL          IMAGINARY     MAGNITUDE     PHASE
 NO.          (AMPS)        (AMPS)        (AMPS)        (DEGREES)
E              0             0             0             0 
 66            4.528627E-04  3.020376E-06  4.528728E-04  .3821295 
 67            8.305454E-04  1.842878E-05  8.307498E-04  1.271114 
 68            1.161156E-03  4.503132E-05  1.162028E-03  2.220902 
 69            1.450994E-03  8.217260E-05  1.453319E-03  3.241309 
 70            1.703286E-03  1.293040E-04  1.708187E-03  4.34125 
 71            1.920748E-03  1.858625E-04  1.929720E-03  5.527059 
 72            2.102492E-03  2.435432E-04  2.116551E-03  6.607435 
J              3.107087E-03  1.398968E-03  3.407507E-03  24.23969 
 
WIRE NO.  7 :
PULSE         REAL          IMAGINARY     MAGNITUDE     PHASE
 NO.          (AMPS)        (AMPS)        (AMPS)        (DEGREES)
J              3.107092E-03  1.398969E-03  3.407511E-03  24.23967 
 75            2.102495E-03  2.435436E-04  2.116554E-03  6.60744 
 76            1.920750E-03  1.858630E-04  1.929722E-03  5.527065 
 77            1.703288E-03  1.293044E-04  1.708189E-03  4.341258 
 78            1.450996E-03  8.217290E-05  1.453321E-03  3.241317 
 79            1.161157E-03  4.503154E-05  1.162030E-03  2.220911 
 80            8.305461E-04  1.842892E-05  8.307505E-04  1.271123 
 81            4.528629E-04  3.020431E-06  4.528730E-04  .3821363 
E              0             0             0             0 
 
********************     FAR FIELD      ********************
 
ZENITH ANGLE : INITIAL,INCREMENT,NUMBER:  0 , 11 , 9 
AZIMUTH ANGLE: INITIAL,INCREMENT,NUMBER:  0 , 10 , 37 
 
 
********************    PATTERN DATA    ********************
ZENITH        AZIMUTH       VERTICAL      HORIZONTAL    TOTAL
 ANGLE         ANGLE        PATTERN (DB)  PATTERN (DB)  PATTERN (DB)
 0             0            -1.404308      6.572683      7.214759 
 11            0            -1.586823      6.503673      7.130323 
 22            0            -2.140319      6.26864       6.853834 
 33            0            -3.078005      5.783185      6.313898 
 44            0            -4.403782      4.900465      5.382454 
 55            0            -6.074533      3.381033      3.847373 
 66            0            -7.925666      .7767153      1.325994 
 77            0            -9.567661     -4.103853     -3.017537 
 88            0            -10.39812     -20.17664     -9.963587 
 0             10            1.629962      5.809812      7.214759 
 11            10            1.438461      5.735951      7.108701 
 22            10            .8577704      5.487311      6.772552 
 33            10           -.1261786      4.98202       6.14958 
 44            10           -1.519115      4.076631      5.134092 
 55            10           -3.2804        2.535175      3.546062 
 66            10           -5.244402     -8.753040E-02  1.068605 
 77            10           -7.002576     -4.980628     -2.86468 
 88            10           -7.899266     -21.05871     -7.69436 
 0             20            3.672071      4.678652      7.214759 
 11            20            3.472442      4.600046      7.083038 
 22            20            2.867804      4.338093      6.675174 
 33            20            1.845186      3.813402      5.950152 
 44            20            .4001161      2.885859      4.828756 
 55            20           -1.425666      1.322906      3.172825 
 66            20           -3.463878     -1.317721      .750744 
 77            20           -5.294264     -6.223015     -2.72356 
 88            20           -6.231045     -22.30624     -6.12513 
 0             30            5.104908      3.067131      7.214759 
 11            30            4.898161      2.985022      7.056397 
 22            30            4.272755      2.713251      6.57293 
 33            30            3.217289      2.174283      5.737322 
 44            30            1.729327      1.230485      4.497364 
 55            30           -.1473294     -.3481845      2.763704 
 66            30           -2.241474     -3.001863      .405252 
 77            30           -4.124319     -7.916009     -2.608574 
 88            30           -5.089658     -24.00297     -5.034236 
 0             40            6.103217      .7522476      7.214759 
 11            40            5.89086       .6694076      7.031987 
 22            40            5.249093      .3956092      6.478059 
 33            40            4.167773     -.1462487      5.536049 
 44            40            2.646081     -1.093244      4.177319 
 55            40            .729406      -2.674899      2.362914 
 66            40           -1.408841     -5.330971      6.887936E-02 
 77            40           -3.333242     -10.24669     -2.528627 
 88            40           -4.321304     -26.3343      -4.294069 
 0             50            6.75769      -2.789802      7.214759 
 11            50            6.541703     -2.867542      7.012781 
 22            50            5.889239     -3.127033      6.402392 
 33            50            4.790611     -3.648047      5.372073 
 44            50            3.245446     -4.571244      3.909906 
 55            50            1.299352     -6.129806      2.020941 
 66            50           -.8734755     -8.766621     -.2197807 
 77            50           -2.832429     -13.66923     -2.488252 
 88            50           -3.840088     -29.75131     -3.828968 
 0             60            7.117101     -9.314743      7.214759 
 11            60            6.899765     -9.367845      7.001144 
 22            60            6.243063     -9.558813      6.355769 
 33            60            5.136678     -9.981521      5.268312 
 44            60            3.579066     -10.79465      3.734878 
 55            60            1.614166     -12.24858      1.789045 
 66            60           -.5848914     -14.79977     -.4233827 
 77            60           -2.573536     -19.64493     -2.489121 
 88            60           -3.599192     -35.70294     -3.596517 
 0             70            7.205186     -19.35766      7.214759 
 11            70            6.988837     -19.52335      6.998522 
 22            70            6.33447      -20.02256      6.344507 
 33            70            5.229933     -20.87051      5.240579 
 44            70            3.670717     -22.12605      3.682133 
 55            70            1.696996     -23.95504      1.708799 
 66            70           -.5211592     -26.77092     -.5108721 
 77            70           -2.536265     -31.76858     -2.531085 
 88            70           -3.579394     -47.88391     -3.579233 
 0             80            7.027464     -6.531132      7.214759 
 11            80            6.814216     -6.656621      7.005251 
 22            80            6.168113     -7.05108       6.370283 
 33            80            5.073989     -7.771491      5.293874 
 44            80            3.522641     -8.926482      3.762967 
 55            80            1.548463     -10.71432      1.799026 
 66            80           -.6834418     -13.54569     -.4643832 
 77            80           -2.723502     -18.58254     -2.61225 
 88            80           -3.784567     -34.72176     -3.781068 
 0             90            6.572683     -1.404308      7.214759 
 11            90            6.364176     -1.510146      7.020506 
 22            90            5.730895     -1.848809      6.429773 
 33            90            4.653657     -2.486128      5.420813 
 44            90            3.117097     -3.54355       3.965513 
 55            90            1.148105     -5.233873      2.047296 
 66            90           -1.094813     -7.981731     -.2857004 
 77            90           -3.16052      -12.96056     -2.728029 
 88            90           -4.241138     -29.07498     -4.226892 
 0             100           5.809812      1.629962      7.214759 
 11            100           5.606993      1.536373      7.042405 
 22            100           4.989115      1.232283      6.515159 
 33            100           3.932244      .6459055      5.603079 
 44            100           2.413766     -.3525239      4.257548 
 55            100           .4517625     -1.984752      2.412479 
 66            100          -1.803131     -4.683528      1.515601E-03 
 77            100          -3.898317     -9.628613     -2.869583 
 88            100          -5.001771     -25.7287      -4.96519 
 0             110           4.678652      3.672071      7.214759 
 11            110           4.481623      3.588452      7.068259 
 22            110           3.879302      3.312414      6.615401 
 33            110           2.842559      2.767127      5.815307 
 44            110           1.340841      1.815939      4.595183 
 55            110          -.6175198      .2298843      2.837118 
 66            110          -2.89074      -2.430142      .3559625 
 77            110          -5.0243       -7.34872      -3.022522 
 88            110          -6.156752     -23.43758     -6.076275 
 0             120           3.067131      5.104908      7.214759 
 11            120           2.875044      5.029649      7.094915 
 22            120           2.285654      4.777086      6.717931 
 33            120           1.264385      4.266075      6.029859 
 44            120          -.2277818      3.35414       4.932745 
 55            120          -2.193191      1.806307      3.261855 
 66            120          -4.499992     -.8217429      .7277325 
 77            120          -6.690454     -5.718496     -3.167041 
 88            120          -7.864043     -21.79812     -7.691958 
 0             130           .7522476      6.103217      7.214759 
 11            130           .5631624      6.034509      7.119158 
 22            130          -1.925415E-02  5.800324      6.81038 
 33            130          -1.035515      5.3161        6.220985 
 44            130          -2.534201      4.434781      5.230053 
 55            130          -4.530406      2.916705      3.63555 
 66            130          -6.90477       .3135156      1.068056 
 77            130          -9.193767     -4.566285     -3.280516 
 88            130          -10.43603     -20.63874     -10.04015 
 0             140          -2.789802      6.75769       7.214759 
 11            140          -2.979524      6.693391      7.138092 
 22            140          -3.566571      6.471571      6.882044 
 33            140          -4.599645      6.005355      6.367635 
 44            140          -6.141382      5.144602      5.456144 
 55            140          -8.227465      3.646503      3.91981 
 66            140          -10.76122      1.059997      1.336539 
 77            140          -13.26936     -3.80843      -3.342637 
 88            140          -14.66401     -19.87608     -13.52072 
 0             150          -9.314743      7.117101      7.214759 
 11            150          -9.51514       7.054848      7.149481 
 22            150          -10.14129      6.838765      6.924956 
 33            150          -11.26412      6.380908      6.454966 
 44            150          -12.98806      5.529703      5.590373 
 55            150          -15.42045      4.040882      4.08977 
 66            150          -18.57036      1.462124      1.505017 
 77            150          -21.99706     -3.401018     -3.341425 
 88            150          -24.10223     -19.46643     -18.18279 
 0             160          -19.35766      7.205186      7.214759 
 11            160          -19.5085       7.142614      7.151994 
 22            160          -19.9531       6.925637      6.934538 
 33            160          -20.65812      6.466485      6.474897 
 44            160          -21.53443      5.613809      5.622176 
 55            160          -22.40243      4.123564      4.133218 
 66            160          -23.03469      1.543622      1.558729 
 77            160          -23.33268     -3.320328     -3.277236 
 88            160          -23.40747     -19.38608     -17.93676 
 0             170          -6.531132      7.027464      7.214759 
 11            170          -6.701961      6.962465      7.145345 
 22            170          -7.217892      6.738687      6.909901 
 33            170          -8.084697      6.269633      6.426129 
 44            170          -9.294453      5.405652      5.550369 
 55            170          -10.79074      3.904428      4.049307 
 66            170          -12.40695      1.315318      1.495828 
 77            170          -13.79805     -3.554882     -3.162508 
 88            170          -14.48436     -19.62328     -13.32402 
 0             180          -1.404308      6.572683      7.214759 
 11            180          -1.586823      6.503672      7.130323 
 22            180          -2.140319      6.26864       6.853834 
 33            180          -3.078004      5.783185      6.313898 
 44            180          -4.403782      4.900465      5.382454 
 55            180          -6.074532      3.381033      3.847372 
 66            180          -7.925665      .7767148      1.325994 
 77            180          -9.567659     -4.103853     -3.017537 
 88            180          -10.39812     -20.17664     -9.963585 
 0             190           1.629962      5.809812      7.214759 
 11            190           1.438461      5.735951      7.108701 
 22            190           .8577705      5.487311      6.772552 
 33            190          -.1261785      4.98202       6.14958 
 44            190          -1.519115      4.07663       5.134091 
 55            190          -3.280399      2.535174      3.546061 
 66            190          -5.244401     -8.753092E-02  1.068605 
 77            190          -7.002575     -4.980628     -2.86468 
 88            190          -7.899264     -21.05871     -7.694358 
 0             200           3.672071      4.678652      7.214759 
 11            200           3.472442      4.600046      7.083038 
 22            200           2.867804      4.338093      6.675174 
 33            200           1.845186      3.813402      5.950152 
 44            200           .4001161      2.885859      4.828755 
 55            200          -1.425666      1.322906      3.172825 
 66            200          -3.463877     -1.317722      .7507439 
 77            200          -5.294263     -6.223015     -2.723559 
 88            200          -6.231044     -22.30624     -6.125129 
 0             210           5.104908      3.067131      7.214759 
 11            210           4.898161      2.985022      7.056397 
 22            210           4.272755      2.713251      6.57293 
 33            210           3.217288      2.174283      5.737322 
 44            210           1.729327      1.230485      4.497364 
 55            210          -.1473294     -.3481849      2.763704 
 66            210          -2.241473     -3.001864      .4052519 
 77            210          -4.124318     -7.91601      -2.608574 
 88            210          -5.089657     -24.00297     -5.034235 
 0             220           6.103217      .7522476      7.214759 
 11            220           5.89086       .6694075      7.031987 
 22            220           5.249093      .3956091      6.478058 
 33            220           4.167773     -.1462488      5.536049 
 44            220           2.646081     -1.093244      4.177319 
 55            220           .7294059     -2.6749        2.362914 
 66            220          -1.408841     -5.330971      6.887937E-02 
 77            220          -3.333241     -10.24669     -2.528627 
 88            220          -4.321304     -26.3343      -4.294069 
 0             230           6.75769      -2.789802      7.214759 
 11            230           6.541703     -2.867542      7.012781 
 22            230           5.889239     -3.127033      6.402392 
 33            230           4.790611     -3.648047      5.372073 
 44            230           3.245446     -4.571244      3.909906 
 55            230           1.299352     -6.129806      2.020941 
 66            230          -.8734755     -8.766621     -.2197806 
 77            230          -2.832429     -13.66923     -2.488252 
 88            230          -3.840087     -29.75131     -3.828967 
 0             240           7.117101     -9.314743      7.214759 
 11            240           6.899765     -9.367845      7.001144 
 22            240           6.243063     -9.558813      6.355769 
 33            240           5.136678     -9.981521      5.268312 
 44            240           3.579066     -10.79465      3.734878 
 55            240           1.614166     -12.24858      1.789045 
 66            240          -.5848914     -14.79977     -.4233827 
 77            240          -2.573536     -19.64493     -2.489121 
 88            240          -3.599191     -35.70294     -3.596516 
 0             250           7.205186     -19.35766      7.214759 
 11            250           6.988837     -19.52335      6.998522 
 22            250           6.33447      -20.02257      6.344507 
 33            250           5.229933     -20.87053      5.240579 
 44            250           3.670717     -22.12607      3.682133 
 55            250           1.696996     -23.95506      1.708799 
 66            250          -.5211591     -26.77095     -.5108721 
 77            250          -2.536264     -31.76861     -2.531085 
 88            250          -3.579394     -47.88394     -3.579233 
 0             260           7.027464     -6.531132      7.214759 
 11            260           6.814216     -6.656622      7.005251 
 22            260           6.168113     -7.051081      6.370283 
 33            260           5.073989     -7.771493      5.293874 
 44            260           3.522641     -8.926484      3.762967 
 55            260           1.548463     -10.71432      1.799026 
 66            260          -.6834416     -13.5457      -.4643832 
 77            260          -2.723501     -18.58254     -2.61225 
 88            260          -3.784567     -34.72177     -3.781068 
 0             270           6.572683     -1.404308      7.214759 
 11            270           6.364176     -1.510146      7.020506 
 22            270           5.730895     -1.84881       6.429773 
 33            270           4.653657     -2.486129      5.420813 
 44            270           3.117097     -3.543551      3.965512 
 55            270           1.148106     -5.233875      2.047295 
 66            270          -1.094813     -7.981733     -.2857005 
 77            270          -3.160519     -12.96056     -2.728029 
 88            270          -4.241137     -29.07498     -4.226892 
 0             280           5.809812      1.629962      7.214759 
 11            280           5.606993      1.536373      7.042405 
 22            280           4.989115      1.232283      6.515159 
 33            280           3.932244      .6459048      5.603079 
 44            280           2.413766     -.3525248      4.257548 
 55            280           .4517628     -1.984753      2.412479 
 66            280          -1.803131     -4.683529      1.515498E-03 
 77            280          -3.898317     -9.628614     -2.869583 
 88            280          -5.00177      -25.7287      -4.965189 
 0             290           4.678652      3.672071      7.214759 
 11            290           4.481623      3.588452      7.068259 
 22            290           3.879302      3.312414      6.615401 
 33            290           2.842559      2.767127      5.815307 
 44            290           1.340842      1.815938      4.595183 
 55            290          -.6175193      .2298837      2.837118 
 66            290          -2.890739     -2.430142      .3559624 
 77            290          -5.024299     -7.348721     -3.022522 
 88            290          -6.156751     -23.43758     -6.076274 
 0             300           3.067131      5.104908      7.214759 
 11            300           2.875045      5.029649      7.094915 
 22            300           2.285655      4.777086      6.717931 
 33            300           1.264385      4.266074      6.029859 
 44            300          -.2277812      3.354139      4.932745 
 55            300          -2.19319       1.806306      3.261854 
 66            300          -4.499991     -.8217433      .7277324 
 77            300          -6.690453     -5.718497     -3.167041 
 88            300          -7.864042     -21.79813     -7.691956 
 0             310           .7522476      6.103217      7.214759 
 11            310           .5631626      6.034509      7.119158 
 22            310          -1.925378E-02  5.800324      6.81038 
 33            310          -1.035515      5.3161        6.220985 
 44            310          -2.5342        4.434781      5.230053 
 55            310          -4.530405      2.916705      3.63555 
 66            310          -6.904769      .3135154      1.068056 
 77            310          -9.193765     -4.566285     -3.280516 
 88            310          -10.43603     -20.63874     -10.04014 
 0             320          -2.789802      6.75769       7.214759 
 11            320          -2.979524      6.693391      7.138092 
 22            320          -3.566571      6.471571      6.882044 
 33            320          -4.599645      6.005355      6.367635 
 44            320          -6.141381      5.144602      5.456144 
 55            320          -8.227464      3.646503      3.91981 
 66            320          -10.76122      1.059996      1.336539 
 77            320          -13.26936     -3.80843      -3.342636 
 88            320          -14.66401     -19.87608     -13.52071 
 0             330          -9.314743      7.117101      7.214759 
 11            330          -9.51514       7.054848      7.149481 
 22            330          -10.14129      6.838765      6.924956 
 33            330          -11.26412      6.380908      6.454966 
 44            330          -12.98806      5.529704      5.590373 
 55            330          -15.42045      4.040882      4.08977 
 66            330          -18.57036      1.462124      1.505018 
 77            330          -21.99706     -3.401018     -3.341425 
 88            330          -24.10223     -19.46643     -18.18279 
 0             340          -19.35766      7.205186      7.214759 
 11            340          -19.5085       7.142614      7.151994 
 22            340          -19.95311      6.925637      6.934538 
 33            340          -20.65814      6.466485      6.474897 
 44            340          -21.53445      5.613809      5.622176 
 55            340          -22.40246      4.123565      4.133218 
 66            340          -23.03471      1.543622      1.55873 
 77            340          -23.3327      -3.320327     -3.277236 
 88            340          -23.40749     -19.38608     -17.93676 
 0             350          -6.531132      7.027464      7.214759 
 11            350          -6.701962      6.962465      7.145345 
 22            350          -7.217893      6.738688      6.909901 
 33            350          -8.084699      6.269633      6.426129 
 44            350          -9.294455      5.405653      5.550369 
 55            350          -10.79074      3.904429      4.049307 
 66            350          -12.40695      1.315318      1.495828 
 77            350          -13.79806     -3.554882     -3.162508 
 88            350          -14.48436     -19.62328     -13.32403 
 0             360          -1.404308      6.572683      7.214759 
 11            360          -1.586823      6.503673      7.130323 
 22            360          -2.140319      6.26864       6.853834 
 33            360          -3.078005      5.783185      6.313898 
 44            360          -4.403782      4.900465      5.382454 
 55            360          -6.074533      3.381033      3.847373 
 66            360          -7.925666      .7767153      1.325994 
 77            360          -9.567661     -4.103853     -3.017537 
 88            360          -10.39812     -20.17664     -9.963587 
