                   ****************************************
                     MINI-NUMERICAL ELECTROMAGNETICS CODE
                                   MININEC
                   ****************************************

FREQUENCY (MHZ): 299.8
    WAVE LENGTH =  1  METERS

ENVIRONMENT (+1 FOR FREE SPACE, -1 FOR GROUND PLANE): -1
 NUMBER OF MEDIA (0 FOR PERFECTLY CONDUCTING GROUND):  0

NO. OF GEO-OBJECTS: 1

ARC NO. 1
            COORDINATES                                 END         NO. OF
   X             Y             Z          RADIUS     CONNECTION     SEGMENTS
 .159155       0             .5                         1
 .159155       0             .5            .00674       1             22

                  **** ANTENNA GEOMETRY ****

ARC NO.  1 COORDINATES                                  CONNECTION PULSE
X             Y             Z             RADIUS        END1 END2  NO.
 .152708       0             .544839       .00674        1    1   1
 .13389        0             .586046       .00674        1    1   2
 .104224       0             .620281       .00674        1    1   3
 .066115       0             .644772       .00674        1    1   4
 .02265        0             .657535       .00674        1    1   5
-.02265        0             .657535       .00674        1    1   6
-.066115       0             .644772       .00674        1    1   7
-.104224       0             .620281       .00674        1    1   8
-.13389        0             .586046       .00674        1    1   9
-.152708       0             .544839       .00674        1    1  10
-.159155       0             .5            .00674        1    1  11
-.152708       0             .455161       .00674        1    1  12
-.13389        0             .413954       .00674        1    1  13
-.104224       0             .379719       .00674        1    1  14
-.066115       0             .355228       .00674        1    1  15
-.02265        0             .342465       .00674        1    1  16
 .02265        0             .342465       .00674        1    1  17
 .066115       0             .355228       .00674        1    1  18
 .104224       0             .379719       .00674        1    1  19
 .13389        0             .413954       .00674        1    1  20
 .152708       0             .455161       .00674        1    1  21
 .159155       0             .5            .00674        1    1  22

NO. OF SOURCES :  1
PULSE NO., VOLTAGE MAGNITUDE, PHASE (DEGREES): 22 , 1 , 0
NUMBER OF LOADS 0

********************    SOURCE DATA     ********************
PULSE 22      VOLTAGE = ( 1 , 0 J)
              CURRENT = ( 5.023784E-03 ,  5.354191E-03 J)
              IMPEDANCE = ( 93.19568 , -99.325   J)
              POWER =  2.511892E-03  WATTS

********************    CURRENT DATA    ********************

ARC NO.  1 :
PULSE         REAL          IMAGINARY     MAGNITUDE     PHASE
 NO.          (AMPS)        (AMPS)        (AMPS)        (DEGREES)
J              5.023784E-03  5.354191E-03  7.342055E-03  46.82352 
 1             4.866243E-03  3.749176E-03  6.143015E-03  37.6123  
 2             4.312657E-03  2.598263E-03  5.034876E-03  31.06786 
 3             3.407601E-03  1.420922E-03  3.691987E-03  22.63546 
 4             2.227054E-03  2.558779E-04  2.241705E-03  6.554272 
 5             8.707481E-04 -8.541324E-04  1.219731E-03 -44.44809 
 6            -5.473890E-04 -1.864401E-03  1.943097E-03 -106.3623 
 7            -1.909428E-03 -2.735683E-03  3.336147E-03 -124.9139 
 8            -3.103424E-03 -3.436102E-03  4.630123E-03 -132.0878 
 9            -4.032622E-03 -3.941462E-03  5.638897E-03 -135.655  
 10           -4.623352E-03 -4.235134E-03  6.269908E-03 -137.5093 
 11           -4.830930E-03 -4.308202E-03  6.472904E-03 -138.2736 
 12           -4.642756E-03 -4.160005E-03  6.233846E-03 -138.139  
 13           -4.078060E-03 -3.798563E-03  5.573119E-03 -137.0323 
 14           -3.184656E-03 -3.239936E-03  4.543041E-03 -134.507  
 15           -2.034045E-03 -2.506300E-03  3.227828E-03 -129.0618 
 16           -7.160616E-04 -1.623904E-03  1.774770E-03 -113.7951 
 17            6.670100E-04 -6.227056E-04  9.125045E-04 -43.03254 
 18            2.007535E-03  4.621369E-04  2.060040E-03  12.96371 
 19            3.200299E-03  1.589473E-03  3.573281E-03  26.41193 
 20            4.149685E-03  2.718473E-03  4.960845E-03  33.22895 
 21            4.776260E-03  3.812047E-03  6.111004E-03  38.59421 
 22            5.023784E-03  5.354191E-03  7.342055E-03  46.82352 
J              5.023784E-03  5.354191E-03  7.342055E-03  46.82352 

********************     FAR FIELD      ********************

ZENITH ANGLE : INITIAL,INCREMENT,NUMBER: 0 , 10 , 10
AZIMUTH ANGLE: INITIAL,INCREMENT,NUMBER: 0 , 10 , 37

********************    PATTERN DATA    ********************
ZENITH        AZIMUTH       VERTICAL      HORIZONTAL    TOTAL
 ANGLE         ANGLE        PATTERN (DB)  PATTERN (DB)  PATTERN (DB)
 0             0            -7.205337     -999          -7.205337
 10            0            -2.642114     -999          -2.642114
 20            0             .157124      -999           .157124 
 30            0             1.532107     -999           1.532107
 40            0             1.147303     -999           1.147303
 50            0            -2.562466     -999          -2.562466
 60            0            -34.51174     -999          -34.51174
 70            0            -.157139      -999          -.157139 
 80            0             5.129014     -999           5.129014
 90            0             6.568732     -999           6.568732
 0             10           -7.338308     -22.41193     -7.205337
 10            10           -2.673758     -24.62646     -2.646144
 20            10            .173315      -27.19424      .18127  
 30            10            1.578133     -29.50619      1.581515
 40            10            1.215988     -31.29766      1.218422
 50            10           -2.474068     -34.15122     -2.471117
 60            10           -34.61596     -40.36922     -33.59206
 70            10           -.052428      -43.535       -.052233 
 80            10            5.241996     -43.79433      5.24205 
 90            10            6.684251     -999           6.684251
 0             20           -7.745621     -16.5243      -7.205337
 10            20           -2.771434     -18.63986     -2.66042 
 20            20            .216292      -21.13872      .247966 
 30            20            1.70723      -23.56962      1.720096
 40            20            1.409861     -25.64265      1.418414
 50            20           -2.224141     -28.60859     -2.214168
 60            20           -34.9445      -34.36605     -31.63535
 70            20            .243291      -37.23204      .244067 
 80            20            5.561104     -38.12502      5.56129 
 90            20            7.010518     -999           7.010518
 0             30           -8.454724     -13.22594     -7.205337
 10            30           -2.943264     -15.18035     -2.691256
 20            30            .270127      -17.55372      .341222 
 30            30            1.894349     -20.12103      1.921569
 40            30            1.695382     -22.65272      1.71131 
 50            30           -1.854318     -25.88619     -1.837189
 60            30           -35.54766     -30.88818     -29.61059
 70            30            .680154      -33.04738      .681995 
 80            30            6.032792     -34.86822      6.033145
 90            30            7.492813     -999           7.492813
 0             40           -9.520258     -11.04399     -7.205337
 10            40           -3.202398     -12.78087     -2.748414
 20            40            .310884      -14.96413      .437917 
 30            40            2.103287     -17.60904      2.149444
 40            40            2.025233     -20.70726      2.04832 
 50            40           -1.422295     -24.49252     -1.400931
 60            40           -36.52105     -28.4804      -27.84702
 70            40            1.189855     -29.46627      1.193588
 80            40            6.584166     -32.0981       6.584754
 90            40            8.056785     -999           8.056785
 0             50           -11.04399     -9.520258     -7.205337
 10            50           -3.566445     -10.99132     -2.844201
 20            50            .309812      -12.91977      .51151  
 30            50            2.292834     -15.51988      2.36411 
 40            50            2.347268     -19.12964      2.378068
 50            50           -.990191      -23.88565     -.967952 
 60            50           -38.03619     -26.70567     -26.3972 
 70            50            1.699872     -26.20213      1.706906
 80            50            7.138442     -29.15113      7.139463
 90            50            8.624294     -999           8.624294
 0             60           -13.22594     -8.454724     -7.205337
 10            60           -4.056659     -9.621804     -2.992566
 20            60            .236694      -11.24161      .535194 
 30            60            2.422386     -13.65826      2.52817 
 40            60            2.611998     -17.53638      2.653767
 50            60           -.615435      -23.6291      -.593791 
 60            60           -40.43119     -25.38608     -25.25224
 70            60            2.144074     -23.29982      2.156456
 80            60            7.626207     -26.14207      7.62803 
 90            60            9.124873     -999           9.124873
 0             70           -16.5243      -7.745621     -7.205337
 10            70           -4.69673      -8.582109     -3.208378
 20            70            .062804      -9.858969      .483901 
 30            70            2.456046     -11.98828      2.609389
 40            70            2.777422     -15.83439      2.836801
 50            70           -.345426      -23.19212     -.322936 
 60            70           -44.54517     -24.44041     -24.39822
 70            70            2.468529     -20.83624      2.488773
 80            70            7.991344     -23.40646      7.994491
 90            70            9.501694     -999           9.501694
 0             80           -22.41193     -7.338308     -7.205337
 10            80           -5.510702     -7.829845     -3.506975
 20            80           -.236682      -8.752225      .335219 
 30            80            2.365168     -10.54729      2.581771
 40            80            2.811497     -14.16121      2.897833
 50            80           -.215246      -22.19482     -.187801 
 60            80           -53.33316     -23.83102     -23.82616
 70            80            2.633723     -18.84903      2.664482
 80            80            8.193131     -21.13728      8.198195
 90            80            9.713622     -999           9.713622
 0             90           -999          -7.205337     -7.205337
 10            90           -6.518576     -7.34971      -3.903991
 20            90           -.68058       -7.926857      .069508 
 30            90            2.129878     -9.390142      2.425619
 40            90            2.6932       -12.70384      2.816763
 50            90           -.247013      -20.79966     -.20894  
 60            90           -49.58699     -23.54246     -23.53167
 70            90            2.614975     -17.34635      2.658573
 80            90            8.206464     -19.39475      8.214003
 90            90            9.735385     -999           9.735385
 0             100          -22.41193     -7.338308     -7.205337
 10            100          -7.726109     -7.144656     -4.415359
 20            100          -1.279331     -7.401605     -.330376 
 30            100           1.740321     -8.565801      2.127293
 40            100           2.413159     -11.59322      2.582458
 50            100          -.44972       -19.45128     -.395406 
 60            100          -42.19069     -23.57247     -23.51318
 70            100           2.402407     -16.32547      2.460231
 80            100           8.02166      -18.18401      8.032052
 90            100           9.557329     -999           9.557329
 0             110          -16.5243      -7.745621     -7.205337
 10            110          -9.101346     -7.233168     -5.057269
 20            110          -2.03161      -7.205053     -.879342 
 30            110           1.198325     -8.116111      1.679245
 40            110           1.974592     -10.90376      2.19286 
 50            110          -.818777      -18.46096     -.74467  
 60            110          -38.2123      -23.92961     -23.77056
 70            110           2.001284     -15.78546      2.072984
 80            110           7.644635     -17.49854      7.657903
 90            110           9.185556     -999           9.185556
 0             120          -13.22594     -8.454724     -7.205337
 10            120          -10.52857     -7.651247     -5.845556
 20            120          -2.919178     -7.378379     -1.589662
 30            120           .519992      -8.084674      1.080996
 40            120           1.394991     -10.68496      1.65601 
 50            120          -1.334889     -17.97386     -1.241731
 60            120          -35.64232     -24.63581     -24.30434
 70            120           1.433098     -15.7368       1.515638
 80            120           7.09782      -17.34076      7.11342 
 90            120           8.642788     -999           8.642788
 0             130          -11.04399     -9.520258     -7.205337
 10            130          -11.75805     -8.46049      -6.793235
 20            130          -3.900043     -7.98475      -2.46859 
 30            130          -.260709      -8.53147       .342151 
 40            130           .708584      -10.99191      .992672 
 50            130          -1.962313     -18.06897     -1.857153
 60            130          -33.86656     -25.73551     -25.11429
 70            130           .737453      -16.21336      .824221 
 80            130           6.421772     -17.73708      6.438409
 90            130           7.969928     -999           7.969928
 0             140          -9.520258     -11.04399     -7.205337
 10            140          -12.47296     -9.76811      -7.902974
 20            140          -4.902573     -9.130661     -3.510905
 30            140          -1.088272     -9.557531     -.510633 
 40            140          -.031119      -11.9176       .241425 
 50            140          -2.647155     -18.83774     -2.543984
 60            140          -32.61793     -27.31693     -26.19406
 70            140          -.025911      -17.2948       .054785 
 80            140           5.676856     -18.76099      5.692459
 90            140           7.227653     -999           7.227653
 0             150          -8.454724     -13.22594     -7.205337
 10            150          -12.57233     -11.77822     -9.146849
 20            150          -5.827829     -11.01833     -4.679531
 30            150          -1.884609     -11.35922     -1.420205
 40            150          -.750732      -13.65041     -.533507 
 50            150          -3.317508     -20.46028     -3.234457
 60            150          -31.75338     -29.565       -27.51248
 70            150          -.776758      -19.15964     -.714189 
 80            150           4.943179     -20.58606      4.95532 
 90            150           6.496254     -999           6.496254
 0             160          -7.745621     -16.5243      -7.205337
 10            160          -12.30481     -14.95193     -10.41943
 20            160          -6.568704     -14.10665     -5.863593
 30            160          -2.555135     -14.3902      -2.279445
 40            160          -1.361866     -16.63724     -1.234844
 50            160          -3.888436     -23.37502     -3.839829
 60            160          -31.18725     -32.92324     -28.95877
 70            160          -1.41918      -22.24692     -1.383434
 80            160           4.31548      -23.6476       4.322416
 90            160           5.870456     -999           5.870456
 0             170          -7.338308     -22.41193     -7.205337
 10            170          -12.00715     -20.76404     -11.46431
 20            170          -7.041177     -19.86841     -6.820389
 30            170          -3.005241     -20.11924     -2.921643
 40            170          -1.774966     -22.34185     -1.737017
 50            170          -4.274861     -29.0391      -4.260385
 60            170          -30.86694     -38.85224     -30.226  
 70            170          -1.855665     -28.01438     -1.84516 
 80            170           3.88923      -29.40068      3.891265
 90            170           5.445527     -999           5.445527
 0             180          -7.205337     -999          -7.205337
 10            180          -11.887       -999          -11.887  
 20            180          -7.202291     -999          -7.202291
 30            180          -3.164051     -999          -3.164051
 40            180          -1.921332     -999          -1.921332
 50            180          -4.41185      -999          -4.41185 
 60            180          -30.7633      -999          -30.7633 
 70            180          -2.010747     -999          -2.010747
 80            180           3.737849     -999           3.737849
 90            180           5.294626     -999           5.294626
 0             190          -7.338308     -22.41193     -7.205337
 10            190          -12.00715     -20.76404     -11.46431
 20            190          -7.041177     -19.86841     -6.820389
 30            190          -3.005241     -20.11924     -2.921643
 40            190          -1.774966     -22.34185     -1.737017
 50            190          -4.274861     -29.0391      -4.260385
 60            190          -30.86694     -38.85224     -30.226  
 70            190          -1.855665     -28.01438     -1.84516 
 80            190           3.88923      -29.40068      3.891265
 90            190           5.445527     -999           5.445527
 0             200          -7.745621     -16.5243      -7.205337
 10            200          -12.30481     -14.95193     -10.41943
 20            200          -6.568704     -14.10665     -5.863593
 30            200          -2.555135     -14.3902      -2.279445
 40            200          -1.361866     -16.63724     -1.234844
 50            200          -3.888436     -23.37502     -3.839829
 60            200          -31.18725     -32.92324     -28.95877
 70            200          -1.41918      -22.24692     -1.383434
 80            200           4.31548      -23.6476       4.322416
 90            200           5.870456     -999           5.870456
 0             210          -8.454724     -13.22594     -7.205337
 10            210          -12.57233     -11.77822     -9.146849
 20            210          -5.827829     -11.01833     -4.679531
 30            210          -1.884609     -11.35922     -1.420205
 40            210          -.750732      -13.65041     -.533507 
 50            210          -3.317508     -20.46028     -3.234457
 60            210          -31.75338     -29.565       -27.51248
 70            210          -.776758      -19.15964     -.714189 
 80            210           4.943179     -20.58606      4.95532 
 90            210           6.496254     -999           6.496254
 0             220          -9.520258     -11.04399     -7.205337
 10            220          -12.47296     -9.76811      -7.902974
 20            220          -4.902573     -9.130661     -3.510905
 30            220          -1.088272     -9.557531     -.510633 
 40            220          -.031119      -11.9176       .241425 
 50            220          -2.647155     -18.83774     -2.543984
 60            220          -32.61793     -27.31693     -26.19406
 70            220          -.025911      -17.2948       .054785 
 80            220           5.676856     -18.76099      5.692459
 90            220           7.227653     -999           7.227653
 0             230          -11.04399     -9.520258     -7.205337
 10            230          -11.75805     -8.46049      -6.793235
 20            230          -3.900043     -7.98475      -2.46859 
 30            230          -.260709      -8.53147       .342151 
 40            230           .708584      -10.99191      .992672 
 50            230          -1.962313     -18.06897     -1.857153
 60            230          -33.86656     -25.73551     -25.11429
 70            230           .737453      -16.21336      .824221 
 80            230           6.421772     -17.73708      6.438409
 90            230           7.969928     -999           7.969928
 0             240          -13.22594     -8.454724     -7.205337
 10            240          -10.52857     -7.651247     -5.845556
 20            240          -2.919178     -7.378379     -1.589662
 30            240           .519992      -8.084674      1.080996
 40            240           1.394991     -10.68496      1.65601 
 50            240          -1.334889     -17.97386     -1.241731
 60            240          -35.64232     -24.63581     -24.30434
 70            240           1.433098     -15.7368       1.515638
 80            240           7.09782      -17.34076      7.11342 
 90            240           8.642788     -999           8.642788
 0             250          -16.5243      -7.745621     -7.205337
 10            250          -9.101346     -7.233168     -5.057269
 20            250          -2.03161      -7.205053     -.879342 
 30            250           1.198325     -8.116111      1.679245
 40            250           1.974592     -10.90376      2.19286 
 50            250          -.818777      -18.46096     -.74467  
 60            250          -38.2123      -23.92961     -23.77056
 70            250           2.001284     -15.78546      2.072984
 80            250           7.644635     -17.49854      7.657903
 90            250           9.185556     -999           9.185556
 0             260          -22.41193     -7.338308     -7.205337
 10            260          -7.726109     -7.144656     -4.415359
 20            260          -1.279331     -7.401605     -.330376 
 30            260           1.740321     -8.565801      2.127293
 40            260           2.413159     -11.59322      2.582458
 50            260          -.44972       -19.45128     -.395406 
 60            260          -42.19069     -23.57247     -23.51318
 70            260           2.402407     -16.32547      2.460231
 80            260           8.02166      -18.18401      8.032052
 90            260           9.557329     -999           9.557329
 0             270          -999          -7.205337     -7.205337
 10            270          -6.518576     -7.34971      -3.903991
 20            270          -.68058       -7.926857      .069508 
 30            270           2.129878     -9.390142      2.425619
 40            270           2.6932       -12.70384      2.816763
 50            270          -.247013      -20.79966     -.20894  
 60            270          -49.58699     -23.54246     -23.53167
 70            270           2.614975     -17.34635      2.658573
 80            270           8.206464     -19.39475      8.214003
 90            270           9.735385     -999           9.735385
 0             280          -22.41193     -7.338308     -7.205337
 10            280          -5.510702     -7.829845     -3.506975
 20            280          -.236682      -8.752225      .335219 
 30            280           2.365168     -10.54729      2.581771
 40            280           2.811497     -14.16121      2.897833
 50            280          -.215246      -22.19482     -.187801 
 60            280          -53.33316     -23.83102     -23.82616
 70            280           2.633723     -18.84903      2.664482
 80            280           8.193131     -21.13728      8.198195
 90            280           9.713622     -999           9.713622
 0             290          -16.5243      -7.745621     -7.205337
 10            290          -4.69673      -8.582109     -3.208378
 20            290           .062804      -9.858969      .483901 
 30            290           2.456046     -11.98828      2.609389
 40            290           2.777422     -15.83439      2.836801
 50            290          -.345426      -23.19212     -.322936 
 60            290          -44.54517     -24.44041     -24.39822
 70            290           2.468529     -20.83624      2.488773
 80            290           7.991344     -23.40646      7.994491
 90            290           9.501694     -999           9.501694
 0             300          -13.22594     -8.454724     -7.205337
 10            300          -4.056659     -9.621804     -2.992566
 20            300           .236694      -11.24161      .535194 
 30            300           2.422386     -13.65826      2.52817 
 40            300           2.611998     -17.53638      2.653767
 50            300          -.615435      -23.6291      -.593791 
 60            300          -40.43119     -25.38608     -25.25224
 70            300           2.144074     -23.29982      2.156456
 80            300           7.626207     -26.14207      7.62803 
 90            300           9.124873     -999           9.124873
 0             310          -11.04399     -9.520258     -7.205337
 10            310          -3.566445     -10.99132     -2.844201
 20            310           .309812      -12.91977      .51151  
 30            310           2.292834     -15.51988      2.36411 
 40            310           2.347268     -19.12964      2.378068
 50            310          -.990191      -23.88565     -.967952 
 60            310          -38.03619     -26.70567     -26.3972 
 70            310           1.699872     -26.20213      1.706906
 80            310           7.138442     -29.15113      7.139463
 90            310           8.624294     -999           8.624294
 0             320          -9.520258     -11.04399     -7.205337
 10            320          -3.202398     -12.78087     -2.748414
 20            320           .310884      -14.96413      .437917 
 30            320           2.103287     -17.60904      2.149444
 40            320           2.025233     -20.70726      2.04832 
 50            320          -1.422295     -24.49252     -1.400931
 60            320          -36.52105     -28.4804      -27.84702
 70            320           1.189855     -29.46627      1.193588
 80            320           6.584166     -32.0981       6.584754
 90            320           8.056785     -999           8.056785
 0             330          -8.454724     -13.22594     -7.205337
 10            330          -2.943264     -15.18035     -2.691256
 20            330           .270127      -17.55372      .341222 
 30            330           1.894349     -20.12103      1.921569
 40            330           1.695382     -22.65272      1.71131 
 50            330          -1.854318     -25.88619     -1.837189
 60            330          -35.54766     -30.88818     -29.61059
 70            330           .680154      -33.04738      .681995 
 80            330           6.032792     -34.86822      6.033145
 90            330           7.492813     -999           7.492813
 0             340          -7.745621     -16.5243      -7.205337
 10            340          -2.771434     -18.63986     -2.66042 
 20            340           .216292      -21.13872      .247966 
 30            340           1.70723      -23.56962      1.720096
 40            340           1.409861     -25.64265      1.418414
 50            340          -2.224141     -28.60859     -2.214168
 60            340          -34.9445      -34.36605     -31.63535
 70            340           .243291      -37.23204      .244067 
 80            340           5.561104     -38.12502      5.56129 
 90            340           7.010518     -999           7.010518
 0             350          -7.338308     -22.41193     -7.205337
 10            350          -2.673758     -24.62646     -2.646144
 20            350           .173315      -27.19424      .18127  
 30            350           1.578133     -29.50619      1.581515
 40            350           1.215988     -31.29766      1.218422
 50            350          -2.474068     -34.15122     -2.471117
 60            350          -34.61596     -40.36922     -33.59206
 70            350          -.052428      -43.535       -.052233 
 80            350           5.241996     -43.79433      5.24205 
 90            350           6.684251     -999           6.684251
 0             360          -7.205337     -999          -7.205337
 10            360          -2.642114     -999          -2.642114
 20            360           .157124      -999           .157124 
 30            360           1.532107     -999           1.532107
 40            360           1.147303     -999           1.147303
 50            360          -2.562466     -999          -2.562466
 60            360          -34.51174     -999          -34.51174
 70            360          -.157139      -999          -.157139 
 80            360           5.129014     -999           5.129014
 90            360           6.568732     -999           6.568732