                   ****************************************
                     MINI-NUMERICAL ELECTROMAGNETICS CODE
                                   MININEC
                   ****************************************

FREQUENCY (MHZ): 299.8
    WAVE LENGTH =  1  METERS

ENVIRONMENT (+1 FOR FREE SPACE, -1 FOR GROUND PLANE): +1

NO. OF GEO-OBJECTS: 1

ARC NO. 1
            COORDINATES                                 END         NO. OF
   X             Y             Z          RADIUS     CONNECTION     SEGMENTS
 .159155       0             0                          1
 .159155       0             0             .00674       1             22

                  **** ANTENNA GEOMETRY ****

ARC NO.  1 COORDINATES                                  CONNECTION PULSE
X             Y             Z             RADIUS        END1 END2  NO.
 .152708       0             .044839       .00674        1    1   1
 .13389        0             .086045       .00674        1    1   2
 .104224       0             .120281       .00674        1    1   3
 .066115       0             .144772       .00674        1    1   4
 .02265        0             .157535       .00674        1    1   5
-.02265        0             .157535       .00674        1    1   6
-.066115       0             .144772       .00674        1    1   7
-.104224       0             .120281       .00674        1    1   8
-.13389        0             .086045       .00674        1    1   9
-.152708       0             .044839       .00674        1    1  10
-.159155       0             0             .00674        1    1  11
-.152708       0            -.044839       .00674        1    1  12
-.13389        0            -.086045       .00674        1    1  13
-.104224       0            -.120281       .00674        1    1  14
-.066115       0            -.144772       .00674        1    1  15
-.02265        0            -.157535       .00674        1    1  16
 .02265        0            -.157535       .00674        1    1  17
 .066115       0            -.144772       .00674        1    1  18
 .104224       0            -.120281       .00674        1    1  19
 .13389        0            -.086045       .00674        1    1  20
 .152708       0            -.044839       .00674        1    1  21
 .159155       0             0             .00674        1    1  22

NO. OF SOURCES :  1
PULSE NO., VOLTAGE MAGNITUDE, PHASE (DEGREES): 22 , 1 , 0
NUMBER OF LOADS 0

********************    SOURCE DATA     ********************
PULSE 22      VOLTAGE = ( 1 , 0 J)
              CURRENT = ( 4.918742E-03 ,  4.966882E-03 J)
              IMPEDANCE = ( 100.662  , -101.6472 J)
              POWER =  2.459371E-03  WATTS

********************    CURRENT DATA    ********************

ARC NO.  1 :
PULSE         REAL          IMAGINARY     MAGNITUDE     PHASE
 NO.          (AMPS)        (AMPS)        (AMPS)        (DEGREES)
J              4.918742E-03  4.966882E-03  6.990275E-03  45.27901 
 1             4.721598E-03  3.410699E-03  5.824633E-03  35.84288 
 2             4.146555E-03  2.337822E-03  4.760182E-03  29.41425 
 3             3.241312E-03  1.258549E-03  3.477075E-03  21.22039 
 4             2.080640E-03  2.012843E-04  2.090353E-03  5.525687 
 5             7.598446E-04 -8.009970E-04  1.104065E-03 -46.51029 
 6            -6.133564E-04 -1.712049E-03  1.818603E-03 -109.7105 
 7            -1.927774E-03 -2.499681E-03  3.156694E-03 -127.6397 
 8            -3.077714E-03 -3.137807E-03  4.395242E-03 -134.4461 
 9            -3.971274E-03 -3.606849E-03  5.364735E-03 -137.7532 
 10           -4.537396E-03 -3.893421E-03  5.978854E-03 -139.368  
 11           -4.731214E-03 -3.989786E-03  6.188924E-03 -139.8594 
 12           -4.537396E-03 -3.893421E-03  5.978854E-03 -139.368  
 13           -3.971274E-03 -3.606849E-03  5.364735E-03 -137.7532 
 14           -3.077714E-03 -3.137807E-03  4.395242E-03 -134.4461 
 15           -1.927774E-03 -2.499681E-03  3.156694E-03 -127.6397 
 16           -6.133564E-04 -1.712049E-03  1.818603E-03 -109.7105 
 17            7.598446E-04 -8.009970E-04  1.104065E-03 -46.51029 
 18            2.080640E-03  2.012843E-04  2.090353E-03  5.525687 
 19            3.241312E-03  1.258549E-03  3.477075E-03  21.22039 
 20            4.146555E-03  2.337822E-03  4.760182E-03  29.41425 
 21            4.721598E-03  3.410699E-03  5.824633E-03  35.84288 
 22            4.918742E-03  4.966882E-03  6.990275E-03  45.27901 
J              4.918742E-03  4.966882E-03  6.990275E-03  45.27901 

********************     FAR FIELD      ********************

ZENITH ANGLE : INITIAL,INCREMENT,NUMBER: 0 , 5 , 37
AZIMUTH ANGLE: INITIAL,INCREMENT,NUMBER: 0 , 5 , 73

********************    PATTERN DATA    ********************
ZENITH        AZIMUTH       VERTICAL      HORIZONTAL    TOTAL
 ANGLE         ANGLE        PATTERN (DB)  PATTERN (DB)  PATTERN (DB)
 0             0            -12.96706     -999          -12.96706
 5             0            -10.5275      -999          -10.5275 
 10            0            -8.575099     -999          -8.575099
 15            0            -6.99765      -999          -6.99765 
 20            0            -5.701987     -999          -5.701987
 25            0            -4.622892     -999          -4.622892
 30            0            -3.715072     -999          -3.715072
 35            0            -2.946365     -999          -2.946365
 40            0            -2.293309     -999          -2.293309
 45            0            -1.738369     -999          -1.738369
 50            0            -1.268169     -999          -1.268169
 55            0            -.87236       -999          -.87236  
 60            0            -.542856      -999          -.542856 
 65            0            -.273332      -999          -.273332 
 70            0            -.058864      -999          -.058864 
 75            0             .104311      -999           .104311 
 80            0             .218971      -999           .218971 
 85            0             .287024      -999           .287024 
 90            0             .309586      -999           .309586 
 95            0             .287024      -999           .287024 
 100           0             .218971      -999           .218971 
 105           0             .104311      -999           .104311 
 110           0            -.058864      -999          -.058864 
 115           0            -.273332      -999          -.273332 
 120           0            -.542856      -999          -.542856 
 125           0            -.87236       -999          -.87236  
 130           0            -1.268169     -999          -1.268169
 135           0            -1.738369     -999          -1.738369
 140           0            -2.293309     -999          -2.293309
 145           0            -2.946365     -999          -2.946365
 150           0            -3.715072     -999          -3.715072
 155           0            -4.622892     -999          -4.622892
 160           0            -5.701987     -999          -5.701987
 165           0            -6.99765      -999          -6.99765 
 170           0            -8.575099     -999          -8.575099
 175           0            -10.5275      -999          -10.5275 
 180           0            -12.96706     -999          -12.96706
 0             5            -13.00018     -34.16114     -12.96706
 5             5            -10.54605     -35.16837     -10.5311 
 10            5            -8.583999     -36.28316     -8.576629
 15            5            -6.999833     -37.47089     -6.995938
 20            5            -5.699144     -38.67167     -5.696954
 25            5            -4.616039     -39.79767     -4.614722
 30            5            -3.704853     -40.7503      -3.703995
 35            5            -2.933217     -41.46466     -2.932608
 40            5            -2.277555     -41.95462     -2.277087
 45            5            -1.720266     -42.31214     -1.719887
 50            5            -1.247948     -42.66324     -1.247634
 55            5            -.850237      -43.12821     -.84998  
 60            5            -.519052      -43.8115      -.518848 
 65            5            -.248074      -44.81511     -.247923 
 70            5            -.032394      -46.26809     -.03229  
 75            5             .131741      -48.38561      .131802 
 80            5             .247096      -51.634        .247124 
 85            5             .31557       -57.49034      .315577 
 90            5             .338273      -999           .338273 
 95            5             .31557       -57.49034      .315577 
 100           5             .247096      -51.634        .247124 
 105           5             .131741      -48.38561      .131802 
 110           5            -.032394      -46.26809     -.03229  
 115           5            -.248074      -44.81511     -.247923 
 120           5            -.519052      -43.8115      -.518848 
 125           5            -.850237      -43.12821     -.84998  
 130           5            -1.247948     -42.66324     -1.247634
 135           5            -1.720266     -42.31214     -1.719887
 140           5            -2.277555     -41.95462     -2.277087
 145           5            -2.933217     -41.46466     -2.932608
 150           5            -3.704853     -40.7503      -3.703995
 155           5            -4.616039     -39.79767     -4.614722
 160           5            -5.699144     -38.67167     -5.696954
 165           5            -6.999833     -37.47089     -6.995938
 170           5            -8.583999     -36.28316     -8.576629
 175           5            -10.54605     -35.16837     -10.5311 
 180           5            -13.00018     -34.16114     -12.96706
 0             10           -13.10003     -28.17365     -12.96706
 5             10           -10.60192     -29.16922     -10.54193
 10            10           -8.610876     -30.27108     -8.581345
 15            10           -7.006623     -31.44604     -6.991025
 20            10           -5.690951     -32.63712     -5.682187
 25            10           -4.595916     -33.76107     -4.590656
 30            10           -3.674735     -34.7237      -3.671325
 35            10           -2.894413     -35.46065     -2.892009
 40            10           -2.231026     -35.98053     -2.229195
 45            10           -1.666786     -36.36777     -1.665315
 50            10           -1.188196     -36.74346     -1.186988
 55            10           -.784863      -37.22656     -.783878 
 60            10           -.448707      -37.92233     -.44793  
 65            10           -.173436      -38.93417     -.172858 
 70            10            .045826      -40.39244      .046219 
 75            10            .212796      -42.51325      .213028 
 80            10            .330203      -45.7636       .33031  
 85            10            .399919      -51.62096      .399947 
 90            10            .423038      -999           .423038 
 95            10            .399919      -51.62096      .399947 
 100           10            .330203      -45.7636       .33031  
 105           10            .212796      -42.51325      .213028 
 110           10            .045826      -40.39244      .046219 
 115           10           -.173436      -38.93417     -.172858 
 120           10           -.448707      -37.92233     -.44793  
 125           10           -.784863      -37.22656     -.783878 
 130           10           -1.188196     -36.74346     -1.186988
 135           10           -1.666786     -36.36777     -1.665315
 140           10           -2.231026     -35.98053     -2.229195
 145           10           -2.894413     -35.46065     -2.892009
 150           10           -3.674735     -34.7237      -3.671325
 155           10           -4.595916     -33.76107     -4.590656
 160           10           -5.690951     -32.63712     -5.682187
 165           10           -7.006623     -31.44604     -6.991025
 170           10           -8.610876     -30.27108     -8.581345
 175           10           -10.60192     -29.16922     -10.54193
 180           10           -13.10003     -28.17365     -12.96706
 0             15           -13.26818     -24.70713     -12.96706
 5             15           -10.69572     -25.68338     -10.56013
 10            15           -8.656252     -26.76384     -8.589619
 15            15           -7.018736     -27.91753     -6.983568
 20            15           -5.678403     -29.0921      -5.65866 
 25            15           -4.563818     -30.21143     -4.552003
 30            15           -3.626308     -31.18853     -3.618702
 35            15           -2.831833     -31.96054     -2.826529
 40            15           -2.155884     -32.52856     -2.1519  
 45            15           -1.580354     -32.96514     -1.577198
 50            15           -1.091594     -33.38274     -1.089032
 55            15           -.679151      -33.89745     -.677082 
 60            15           -.334951      -34.61543     -.33333  
 65            15           -.052735      -35.64221     -.051536 
 70            15            .172318      -37.11022      .17313  
 75            15            .343866      -39.2372       .344344 
 80            15            .464586      -42.49127      .464806 
 85            15            .536309      -48.3506       .536365 
 90            15            .5601        -999           .5601   
 95            15            .536309      -48.3506       .536365 
 100           15            .464586      -42.49127      .464806 
 105           15            .343866      -39.2372       .344344 
 110           15            .172318      -37.11022      .17313  
 115           15           -.052735      -35.64221     -.051536 
 120           15           -.334951      -34.61543     -.33333  
 125           15           -.679151      -33.89745     -.677082 
 130           15           -1.091594     -33.38274     -1.089032
 135           15           -1.580354     -32.96514     -1.577198
 140           15           -2.155884     -32.52856     -2.1519  
 145           15           -2.831833     -31.96054     -2.826529
 150           15           -3.626308     -31.18853     -3.618702
 155           15           -4.563818     -30.21143     -4.552003
 160           15           -5.678403     -29.0921      -5.65866 
 165           15           -7.018736     -27.91753     -6.983568
 170           15           -8.656252     -26.76384     -8.589619
 175           15           -10.69572     -25.68338     -10.56013
 180           15           -13.26818     -24.70713     -12.96706
 0             20           -13.50734     -22.28603     -12.96706
 5             20           -10.8285      -23.23547     -10.5859 
 10            20           -8.720994     -24.28627     -8.602063
 15            20           -7.037343     -25.4103      -6.974631
 20            20           -5.663116     -26.56107     -5.627942
 25            20           -4.521833     -27.67162     -4.500855
 30            20           -3.562132     -28.66453     -3.548739
 35            20           -2.74849      -29.4802      -2.739282
 40            20           -2.055575     -30.11157     -2.048785
 45            20           -1.464836     -30.61613     -1.459559
 50            20           -.962399      -31.09385     -.958188 
 55            20           -.537727      -31.65554     -.534371 
 60            20           -.182739      -32.40752     -.180138 
 65            20            .108778      -33.45778      .110688 
 70            20            .34158       -34.94148      .342867 
 75            20            .51925       -37.0786       .520005 
 80            20            .644398      -40.33889      .644745 
 85            20            .718801      -46.20157      .718889 
 90            20            .743489      -999           .743489 
 95            20            .718801      -46.20157      .718889 
 100           20            .644398      -40.33889      .644745 
 105           20            .51925       -37.0786       .520005 
 110           20            .34158       -34.94148      .342867 
 115           20            .108778      -33.45778      .110688 
 120           20           -.182739      -32.40752     -.180138 
 125           20           -.537727      -31.65554     -.534371 
 130           20           -.962399      -31.09385     -.958188 
 135           20           -1.464836     -30.61613     -1.459559
 140           20           -2.055575     -30.11157     -2.048785
 145           20           -2.74849      -29.4802      -2.739282
 150           20           -3.562132     -28.66453     -3.548739
 155           20           -4.521833     -27.67162     -4.500855
 160           20           -5.663116     -26.56107     -5.627942
 165           20           -7.037343     -25.4103      -6.974631
 170           20           -8.720994     -24.28627     -8.602063
 175           20           -10.8285      -23.23547     -10.5859 
 180           20           -13.50734     -22.28603     -12.96706
 0             25           -13.82155     -20.44809     -12.96706
 5             25           -11.00179     -21.36351     -10.61953
 10            25           -8.806306     -22.37669     -8.619507
 15            25           -7.064045     -23.46282     -6.965649
 20            25           -5.64727      -24.58203     -5.59212 
 25            25           -4.472755     -25.67773     -4.439972
 30            25           -3.485601     -26.68393     -3.464856
 35            25           -2.648361     -27.54649     -2.634324
 40            25           -1.934637     -28.25153     -1.924507
 45            25           -1.325297     -28.84011     -1.317608
 50            25           -.806175      -29.39629     -.800171 
 55            25           -.366613      -30.02223     -.361914 
 60            25            .001485      -30.82261      .005076 
 65            25            .304291      -31.90744      .3069   
 70            25            .546485      -33.41494      .548229 
 75            25            .73157       -35.56786      .732588 
 80            25            .862078      -38.83804      .862543 
 85            25            .939722      -44.70613      .939841 
 90            25            .965496      -999           .965496 
 95            25            .939722      -44.70613      .939841 
 100           25            .862078      -38.83804      .862543 
 105           25            .73157       -35.56786      .732588 
 110           25            .546485      -33.41494      .548229 
 115           25            .304291      -31.90744      .3069   
 120           25            .001485      -30.82261      .005076 
 125           25           -.366613      -30.02223     -.361914 
 130           25           -.806175      -29.39629     -.800171 
 135           25           -1.325297     -28.84011     -1.317608
 140           25           -1.934637     -28.25153     -1.924507
 145           25           -2.648361     -27.54649     -2.634324
 150           25           -3.485601     -26.68393     -3.464856
 155           25           -4.472755     -25.67773     -4.439972
 160           25           -5.64727      -24.58203     -5.59212 
 165           25           -7.064045     -23.46282     -6.965649
 170           25           -8.806306     -22.37669     -8.619507
 175           25           -11.00179     -21.36351     -10.61953
 180           25           -13.82155     -20.44809     -12.96706
 0             30           -14.21645     -18.98766     -12.96706
 5             30           -11.21757     -19.86212     -10.66138
 10            30           -8.913718     -20.83012     -8.642987
 15            30           -7.100829     -21.87037     -6.958371
 20            30           -5.633531     -22.94986     -5.553703
 25            30           -4.419962     -24.0228      -4.372632
 30            30           -3.400791     -25.0356      -3.371087
 35            30           -2.536187     -25.94187     -2.516407
 40            30           -1.798442     -26.72385     -1.784493
 45            30           -1.16771      -27.4073      -1.157399
 50            30           -.629456      -28.05826     -.621612 
 55            30           -.172863      -28.76655     -.166863 
 60            30            .210201      -29.63216      .214702 
 65            30            .525869      -30.76562      .529093 
 70            30            .778751      -32.30779      .780884 
 75            30            .972263      -34.48441      .973499 
 80            30            1.108857     -37.76979      1.109419
 85            30            1.190182     -43.64632      1.190324
 90            30            1.217186     -298.8273      1.217186
 95            30            1.190182     -43.64632      1.190324
 100           30            1.108857     -37.76979      1.109419
 105           30            .972263      -34.48441      .973499 
 110           30            .778751      -32.30779      .780884 
 115           30            .525869      -30.76562      .529093 
 120           30            .210201      -29.63216      .214702 
 125           30           -.172863      -28.76655     -.166863 
 130           30           -.629456      -28.05826     -.621612 
 135           30           -1.16771      -27.4073      -1.157399
 140           30           -1.798442     -26.72385     -1.784493
 145           30           -2.536187     -25.94187     -2.516407
 150           30           -3.400791     -25.0356      -3.371087
 155           30           -4.419962     -24.0228      -4.372632
 160           30           -5.633531     -22.94986     -5.553703
 165           30           -7.100829     -21.87037     -6.958371
 170           30           -8.913718     -20.83012     -8.642987
 175           30           -11.21757     -19.86212     -10.66138
 180           30           -14.21645     -18.98766     -12.96706
 0             35           -14.69977     -17.79523     -12.96706
 5             35           -11.47837     -18.62219     -10.71187
 10            35           -9.045076     -19.53793     -8.673713
 15            35           -7.150023     -20.52467     -6.954804
 20            35           -5.624964     -21.55612     -5.515521
 25            35           -4.367284     -22.59686     -4.302483
 30            35           -3.312271     -23.60578     -3.271869
 35            35           -2.417243     -24.5459      -2.390722
 40            35           -1.652932     -25.39931     -1.634641
 45            35           -.998642      -26.18002     -.98549  
 50            35           -.439394      -26.93637     -.429675 
 55            35            .035833      -27.74299      .04307  
 60            35            .435231      -28.69141      .440539 
 65            35            .764911      -29.88984      .768645 
 70            35            1.029417     -31.48033      1.031853
 75            35            1.232082     -33.69111      1.23348 
 80            35            1.375281     -36.99895      1.375912
 85            35            1.460596     -42.88817      1.460756
 90            35            1.488936     -297.7949      1.488936
 95            35            1.460596     -42.88817      1.460756
 100           35            1.375281     -36.99895      1.375912
 105           35            1.232082     -33.69111      1.23348 
 110           35            1.029417     -31.48033      1.031853
 115           35            .764911      -29.88984      .768645 
 120           35            .435231      -28.69141      .440539 
 125           35            .035833      -27.74299      .04307  
 130           35           -.439394      -26.93637     -.429675 
 135           35           -.998642      -26.18002     -.98549  
 140           35           -1.652932     -25.39931     -1.634641
 145           35           -2.417243     -24.5459      -2.390722
 150           35           -3.312271     -23.60578     -3.271869
 155           35           -4.367284     -22.59686     -4.302483
 160           35           -5.624964     -21.55612     -5.515521
 165           35           -7.150023     -20.52467     -6.954804
 170           35           -9.045076     -19.53793     -8.673713
 175           35           -11.47837     -18.62219     -10.71187
 180           35           -14.69977     -17.79523     -12.96706
 0             40           -15.28198     -16.80571     -12.96706
 5             40           -11.78733     -17.57903     -10.77148
 10            40           -9.202527     -18.436       -8.713049
 15            40           -7.214241     -19.36215     -6.957157
 20            40           -5.624934     -20.33734     -5.48062 
 25            40           -4.318863     -21.33555     -4.233389
 30            40           -3.224926     -22.32723     -3.17185 
 35            40           -2.297112     -23.28546     -2.262659
 40            40           -1.50435      -24.19556     -1.481042
 45            40           -.824955      -25.06471     -.808624 
 50            40           -.243424      -25.92674     -.231705 
 55            40            .251516      -26.84049      .259991 
 60            40            .668144      -27.88585      .674199 
 65            40            1.012571     -29.16507      1.016738
 70            40            1.289288     -30.81872      1.29196 
 75            40            1.501557     -33.07591      1.50307 
 80            40            1.651677     -36.41519      1.652354
 85            40            1.741171     -42.32252      1.741341
 90            40            1.770908     -296.5209      1.770908
 95            40            1.741171     -42.32252      1.741341
 100           40            1.651677     -36.41519      1.652354
 105           40            1.501557     -33.07591      1.50307 
 110           40            1.289288     -30.81872      1.29196 
 115           40            1.012571     -29.16507      1.016738
 120           40            .668144      -27.88585      .674199 
 125           40            .251516      -26.84049      .259991 
 130           40           -.243424      -25.92674     -.231705 
 135           40           -.824955      -25.06471     -.808624 
 140           40           -1.50435      -24.19556     -1.481042
 145           40           -2.297112     -23.28546     -2.262659
 150           40           -3.224926     -22.32723     -3.17185 
 155           40           -4.318863     -21.33555     -4.233389
 160           40           -5.624934     -20.33734     -5.48062 
 165           40           -7.214241     -19.36215     -6.957157
 170           40           -9.202527     -18.436       -8.713049
 175           40           -11.78733     -17.57903     -10.77148
 180           40           -15.28198     -16.80571     -12.96706
 0             45           -15.97736     -15.97736     -12.96706
 5             45           -12.14826     -16.69142     -10.84073
 10            45           -9.388502     -17.48372     -8.762485
 15            45           -7.296327     -18.34285     -6.967778
 20            45           -5.63701      -19.25403     -5.452165
 25            45           -4.279012     -20.19923     -4.169297
 30            45           -3.143776     -21.15887     -3.07572 
 35            45           -2.18148      -22.11554     -2.137609
 40            45           -1.359002     -23.05987     -1.329744
 45            45           -.653533      -23.99694     -.633468 
 50            45           -.048966      -24.95105     -.034942 
 55            45            .466273      -25.96768      .476133 
 60            45            .900591      -27.11412      .907446 
 65            45            1.260119     -28.48368      1.264723
 70            45            1.549314     -30.2121       1.552208
 75            45            1.77138      -32.52679      1.772993
 80            45            1.928552     -35.90633      1.929267
 85            45            2.022302     -41.83739      2.02248 
 90            45            2.053462     -295.7985      2.053462
 95            45            2.022302     -41.83739      2.02248 
 100           45            1.928552     -35.90633      1.929267
 105           45            1.77138      -32.52679      1.772993
 110           45            1.549314     -30.2121       1.552208
 115           45            1.260119     -28.48368      1.264723
 120           45            .900591      -27.11412      .907446 
 125           45            .466273      -25.96768      .476133 
 130           45           -.048966      -24.95105     -.034942 
 135           45           -.653533      -23.99694     -.633468 
 140           45           -1.359002     -23.05987     -1.329744
 145           45           -2.18148      -22.11554     -2.137609
 150           45           -3.143776     -21.15887     -3.07572 
 155           45           -4.279012     -20.19923     -4.169297
 160           45           -5.63701      -19.25403     -5.452165
 165           45           -7.296327     -18.34285     -6.967778
 170           45           -9.388502     -17.48372     -8.762485
 175           45           -12.14826     -16.69142     -10.84073
 180           45           -15.97736     -15.97736     -12.96706
 0             50           -16.80571     -15.28198     -12.96706
 5             50           -12.56578     -15.93166     -10.92019
 10            50           -9.605698     -16.65411     -8.823617
 15            50           -7.399295     -17.44061     -6.989108
 20            50           -5.66487      -18.28083     -5.433365
 25            50           -4.252089     -19.16321     -4.114128
 30            50           -3.073824     -20.07613     -2.988069
 35            50           -2.07595      -21.01029     -2.020794
 40            50           -1.22305      -21.96209     -1.18657 
 45            50           -.491059      -22.9377      -.466405 
 50            50            .136815      -23.95684      .153703 
 55            50            .672505      -25.05595      .684103 
 60            50            1.12458      -26.2916       1.132447
 65            50            1.499222     -27.74743      1.504384
 70            50            1.800877     -29.55204      1.804056
 75            50            2.032708     -31.92842      2.034452
 80            50            2.1969       -35.35285      2.197664
 85            50            2.294882     -41.31104      2.295071
 90            50            2.327456     -294.9817      2.327456
 95            50            2.294882     -41.31104      2.295071
 100           50            2.1969       -35.35285      2.197664
 105           50            2.032708     -31.92842      2.034452
 110           50            1.800877     -29.55204      1.804056
 115           50            1.499222     -27.74743      1.504384
 120           50            1.12458      -26.2916       1.132447
 125           50            .672505      -25.05595      .684103 
 130           50            .136815      -23.95684      .153703 
 135           50           -.491059      -22.9377      -.466405 
 140           50           -1.22305      -21.96209     -1.18657 
 145           50           -2.07595      -21.01029     -2.020794
 150           50           -3.073824     -20.07613     -2.988069
 155           50           -4.252089     -19.16321     -4.114128
 160           50           -5.66487      -18.28083     -5.433365
 165           50           -7.399295     -17.44061     -6.989108
 170           50           -9.605698     -16.65411     -8.823617
 175           50           -12.56578     -15.93166     -10.92019
 180           50           -16.80571     -15.28198     -12.96706
 0             55           -17.79523     -14.69977     -12.96706
 5             55           -13.0454      -15.28052     -11.01043
 10            55           -9.857058     -15.9287      -8.898118
 15            55           -7.526269     -16.63787     -7.023637
 20            55           -5.712208     -17.4013      -5.427397
 25            55           -4.242383     -18.21238     -4.071688
 30            55           -3.019918     -19.06551     -2.913288
 35            55           -1.98589      -19.9576      -1.917156
 40            55           -1.102348     -20.89014     -1.056981
 45            55           -.343837      -21.87169     -.313395 
 50            55            .307203      -22.92076      .327807 
 55            55            .863117      -24.069        .877044 
 60            55            1.332679     -25.3658       1.341958
 65            55            1.722156     -26.88688      1.728134
 70            55            2.036008     -28.75363      2.039627
 75            55            2.277377     -31.18333      2.279334
 80            55            2.448417     -34.64826      2.449265
 85            55            2.550523     -40.63163      2.550731
 90            55            2.584474     -294.3702      2.584474
 95            55            2.550523     -40.63163      2.550731
 100           55            2.448417     -34.64826      2.449265
 105           55            2.277377     -31.18333      2.279334
 110           55            2.036008     -28.75363      2.039627
 115           55            1.722156     -26.88688      1.728134
 120           55            1.332679     -25.3658       1.341958
 125           55            .863117      -24.069        .877044 
 130           55            .307203      -22.92076      .327807 
 135           55           -.343837      -21.87169     -.313395 
 140           55           -1.102348     -20.89014     -1.056981
 145           55           -1.98589      -19.9576      -1.917156
 150           55           -3.019918     -19.06551     -2.913288
 155           55           -4.242383     -18.21238     -4.071688
 160           55           -5.712208     -17.4013      -5.427397
 165           55           -7.526269     -16.63787     -7.023637
 170           55           -9.857058     -15.9287      -8.898118
 175           55           -13.0454      -15.28052     -11.01043
 180           55           -17.79523     -14.69977     -12.96706
 0             60           -18.98766     -14.21645     -12.96706
 5             60           -13.59377     -14.72433     -11.11206
 10            60           -10.14574     -15.2946      -8.98773 
 15            60           -7.680421     -15.92276     -7.073867
 20            60           -5.782654     -16.6049      -5.437366
 25            60           -4.254016     -17.33805     -4.045606
 30            60           -2.986644     -18.12093     -2.85549 
 35            60           -1.916318     -18.95491     -1.83127 
 40            60           -1.002316     -19.84529     -.945995 
 45            60           -.217662      -20.80309     -.179874 
 50            60            .456056      -21.84713      .481535 
 55            60            1.031653     -23.00717      1.048755
 60            60            1.518153     -24.32874      1.529439
 65            60            1.921942     -25.8825       1.929136
 70            60            2.247524     -27.78446      2.251833
 75            60            2.498044     -30.24697      2.500352
 80            60            2.675642     -33.73825      2.676633
 85            60            2.781691     -39.73857      2.781934
 90            60            2.816959     -293.8605      2.816959
 95            60            2.781691     -39.73857      2.781934
 100           60            2.675642     -33.73825      2.676633
 105           60            2.498044     -30.24697      2.500352
 110           60            2.247524     -27.78446      2.251833
 115           60            1.921942     -25.8825       1.929136
 120           60            1.518153     -24.32874      1.529439
 125           60            1.031653     -23.00717      1.048755
 130           60            .456056      -21.84713      .481535 
 135           60           -.217662      -20.80309     -.179874 
 140           60           -1.002316     -19.84529     -.945995 
 145           60           -1.916318     -18.95491     -1.83127 
 150           60           -2.986644     -18.12093     -2.85549 
 155           60           -4.254016     -17.33805     -4.045606
 160           60           -5.782654     -16.6049      -5.437366
 165           60           -7.680421     -15.92276     -7.073867
 170           60           -10.14574     -15.2946      -8.98773 
 175           60           -13.59377     -14.72433     -11.11206
 180           60           -18.98766     -14.21645     -12.96706
 0             65           -20.44809     -13.82155     -12.96706
 5             65           -14.21877     -14.25323     -11.22567
 10            65           -10.47508     -14.74279     -9.094237
 15            65           -7.864915     -15.28733     -7.142293
 20            65           -5.8797       -15.8851      -5.466263
 25            65           -4.290857     -16.53581     -4.039292
 30            65           -2.978235     -17.24118     -2.818472
 35            65           -1.87181      -18.00559     -1.767297
 40            65           -.92785       -18.83703     -.858127 
 45            65           -.117728      -19.74844     -.070699 
 50            65            .577902      -20.75947      .609704 
 55            65            1.172388     -21.89941      1.193744
 60            65            1.67505      -23.21219      1.689122
 65            65            2.092431     -24.76592      2.101374
 70            65            2.429111     -26.67356      2.434448
 75            65            2.688265     -29.14435      2.691112
 80            65            2.872036     -32.64375      2.873256
 85            65            2.981794     -38.64986      2.982093
 90            65            3.018299     -293.4627      3.018299
 95            65            2.981794     -38.64986      2.982093
 100           65            2.872036     -32.64375      2.873256
 105           65            2.688265     -29.14435      2.691112
 110           65            2.429111     -26.67356      2.434448
 115           65            2.092431     -24.76592      2.101374
 120           65            1.67505      -23.21219      1.689122
 125           65            1.172388     -21.89941      1.193744
 130           65            .577902      -20.75947      .609704 
 135           65           -.117728      -19.74844     -.070699 
 140           65           -.92785       -18.83703     -.858127 
 145           65           -1.87181      -18.00559     -1.767297
 150           65           -2.978235     -17.24118     -2.818472
 155           65           -4.290857     -16.53581     -4.039292
 160           65           -5.8797       -15.8851      -5.466263
 165           65           -7.864915     -15.28733     -7.142293
 170           65           -10.47508     -14.74279     -9.094237
 175           65           -14.21877     -14.25323     -11.22567
 180           65           -20.44809     -13.82155     -12.96706
 0             70           -22.28603     -13.50734     -12.96706
 5             70           -14.92976     -13.86017     -11.35182
 10            70           -10.84854     -14.26702     -9.219467
 15            70           -8.082839     -14.72639     -7.231385
 20            70           -6.006632     -15.2382      -5.51695 
 25            70           -4.356459     -15.80412     -4.055917
 30            70           -2.998507     -16.42794     -2.805682
 35            70           -1.856434     -17.1161      -1.728958
 40            70           -.883261      -17.87843     -.797366 
 45            70           -.048574      -18.72928      .009875 
 50            70            .667991      -19.68917      .707808 
 55            70            1.280376     -20.78762      1.307269
 60            70            1.79825      -22.06813      1.816043
 65            70            2.228351     -23.59792      2.239691
 70            70            2.575371     -25.48869      2.582148
 75            70            2.84254      -27.94826      2.846158
 80            70            3.032027     -31.44075      3.033577
 85            70            3.145212     -37.4432       3.145591
 90            70            3.182859     -293.1349      3.182859
 95            70            3.145212     -37.4432       3.145591
 100           70            3.032027     -31.44075      3.033577
 105           70            2.84254      -27.94826      2.846158
 110           70            2.575371     -25.48869      2.582148
 115           70            2.228351     -23.59792      2.239691
 120           70            1.79825      -22.06813      1.816043
 125           70            1.280376     -20.78762      1.307269
 130           70            .667991      -19.68917      .707808 
 135           70           -.048574      -18.72928      .009875 
 140           70           -.883261      -17.87843     -.797366 
 145           70           -1.856434     -17.1161      -1.728958
 150           70           -2.998507     -16.42794     -2.805682
 155           70           -4.356459     -15.80412     -4.055917
 160           70           -6.006632     -15.2382      -5.51695 
 165           70           -8.082839     -14.72639     -7.231385
 170           70           -10.84854     -14.26702     -9.219467
 175           70           -14.92976     -13.86017     -11.35182
 180           70           -22.28603     -13.50734     -12.96706
 0             75           -24.70713     -13.26818     -12.96706
 5             75           -15.73764     -13.54012     -11.49105
 10            75           -11.26961     -13.86312     -9.365276
 15            75           -8.337138     -14.23681     -7.343582
 20            75           -6.166467     -14.66248     -5.592151
 25            75           -4.453996     -15.14327     -4.098401
 30            75           -3.050808     -15.68445     -2.820218
 35            75           -1.87371      -16.29392     -1.719528
 40            75           -.872233      -16.98282     -.767167 
 45            75           -.014046      -17.76658      .058216 
 50            75            .722324      -18.66651      .772031 
 55            75            1.35148      -19.71262      1.38534 
 60            75            1.883487     -20.94861      1.906052
 65            75            2.325326     -22.4416       2.339792
 70            75            2.681832     -24.30304      2.690519
 75            75            2.956321     -26.74039      2.960976
 80            75            3.151012     -30.21737      3.153011
 85            75            3.267312     -36.21066      3.267802
 90            75            3.305996     -292.8046      3.305996
 95            75            3.267312     -36.21066      3.267802
 100           75            3.151012     -30.21737      3.153011
 105           75            2.956321     -26.74039      2.960976
 110           75            2.681832     -24.30304      2.690519
 115           75            2.325326     -22.4416       2.339792
 120           75            1.883487     -20.94861      1.906052
 125           75            1.35148      -19.71262      1.38534 
 130           75            .722324      -18.66651      .772031 
 135           75           -.014046      -17.76658      .058216 
 140           75           -.872233      -16.98282     -.767167 
 145           75           -1.87371      -16.29392     -1.719528
 150           75           -3.050808     -15.68445     -2.820218
 155           75           -4.453996     -15.14327     -4.098401
 160           75           -6.166467     -14.66248     -5.592151
 165           75           -8.337138     -14.23681     -7.343582
 170           75           -11.26961     -13.86312     -9.365276
 175           75           -15.73764     -13.54012     -11.49105
 180           75           -24.70713     -13.26818     -12.96706
 0             80           -28.17365     -13.10003     -12.96706
 5             80           -16.65465     -13.28973     -11.64384
 10            80           -11.7417      -13.5285      -9.533549
 15            80           -8.630534     -13.81701     -7.481298
 20            80           -6.36189      -14.15764     -5.694454
 25            80           -4.586217     -14.5547      -4.169415
 30            80           -3.13797      -15.01459     -2.864825
 35            80           -1.926564     -15.54631     -1.741833
 40            80           -.897794      -16.16198     -.770449 
 45            80           -.017271      -16.87788      .071298 
 50            80            .737677      -17.71601      .799242 
 55            80            1.382381     -18.70694      1.424719
 60            80            1.927358     -19.89474      1.955812
 65            80            2.379875     -21.3468       2.398249
 70            80            2.744951     -23.1747       2.75605 
 75            80            3.026017     -25.58596      3.031991
 80            80            3.225363     -29.04432      3.227938
 85            80            3.344441     -35.02645      3.345073
 90            80            3.384048     -292.7262      3.384048
 95            80            3.344441     -35.02645      3.345073
 100           80            3.225363     -29.04432      3.227938
 105           80            3.026017     -25.58596      3.031991
 110           80            2.744951     -23.1747       2.75605 
 115           80            2.379875     -21.3468       2.398249
 120           80            1.927358     -19.89474      1.955812
 125           80            1.382381     -18.70694      1.424719
 130           80            .737677      -17.71601      .799242 
 135           80           -.017271      -16.87788      .071298 
 140           80           -.897794      -16.16198     -.770449 
 145           80           -1.926564     -15.54631     -1.741833
 150           80           -3.13797      -15.01459     -2.864825
 155           80           -4.586217     -14.5547      -4.169415
 160           80           -6.36189      -14.15764     -5.694454
 165           80           -8.630534     -13.81701     -7.481298
 170           80           -11.7417      -13.5285      -9.533549
 175           80           -16.65465     -13.28973     -11.64384
 180           80           -28.17365     -13.10003     -12.96706
 0             85           -34.16114     -13.00018     -12.96706
 5             85           -17.69323     -13.10695     -11.81058
 10            85           -12.26787     -13.26188     -9.726197
 15            85           -8.965419     -13.46659     -7.646931
 20            85           -6.595185     -13.72441     -5.826318
 25            85           -4.755386     -14.04058     -4.271391
 30            85           -3.262272     -14.42242     -2.941901
 35            85           -2.017308     -14.87975     -1.798259
 40            85           -.962296      -15.42548     -.809607 
 45            85           -.060648      -16.07653      .046705 
 50            85            .711603      -16.85548      .78699  
 55            85            1.370583     -17.79336      1.422916
 60            85            1.927322     -18.93461      1.962788
 65            85            2.389418     -20.3469       2.412486
 70            85            2.762112     -22.14203      2.776129
 75            85            3.04898      -24.52768      3.056561
 80            85            3.252412     -27.96768      3.25569 
 85            85            3.373919     -33.93877      3.374725
 90            85            3.414333     -292.6495      3.414333
 95            85            3.373919     -33.93877      3.374725
 100           85            3.252412     -27.96768      3.25569 
 105           85            3.04898      -24.52768      3.056561
 110           85            2.762112     -22.14203      2.776129
 115           85            2.389418     -20.3469       2.412486
 120           85            1.927322     -18.93461      1.962788
 125           85            1.370583     -17.79336      1.422916
 130           85            .711603      -16.85548      .78699  
 135           85           -.060648      -16.07653      .046705 
 140           85           -.962296      -15.42548     -.809607 
 145           85           -2.017308     -14.87975     -1.798259
 150           85           -3.262272     -14.42242     -2.941901
 155           85           -4.755386     -14.04058     -4.271391
 160           85           -6.595185     -13.72441     -5.826318
 165           85           -8.965419     -13.46659     -7.646931
 170           85           -12.26787     -13.26188     -9.726197
 175           85           -17.69323     -13.10695     -11.81058
 180           85           -34.16114     -13.00018     -12.96706
 0             90           -999          -12.96706     -12.96706
 5             90           -18.86258     -12.99086     -11.99157
 10            90           -12.85045     -13.06308     -9.945162
 15            90           -9.343726     -13.18618     -7.842874
 20            90           -6.868152     -13.36432     -5.990091
 25            90           -4.96323      -13.60353     -4.406529
 30            90           -3.425398     -13.91186     -3.053511
 35            90           -2.1476       -14.29977     -1.89076 
 40            90           -1.067387     -14.78072     -.886512 
 45            90           -.145824      -15.37211     -.017378 
 50            90            .642448      -16.09694      .733499 
 55            90            1.314427     -16.98651      1.378179
 60            90            1.881707     -18.08554      1.925246
 65            90            2.352271     -19.46187      2.380778
 70            90            2.731619     -21.22744      2.749037
 75            90            3.023508     -23.59001      3.032969
 80            90            3.230449     -27.01349      3.234552
 85            90            3.354031     -32.97466      3.355042
 90            90            3.395132     -292.5707      3.395132
 95            90            3.354031     -32.97466      3.355042
 100           90            3.230449     -27.01349      3.234552
 105           90            3.023508     -23.59001      3.032969
 110           90            2.731619     -21.22744      2.749037
 115           90            2.352271     -19.46187      2.380778
 120           90            1.881707     -18.08554      1.925246
 125           90            1.314427     -16.98651      1.378179
 130           90            .642448      -16.09694      .733499 
 135           90           -.145824      -15.37211     -.017378 
 140           90           -1.067387     -14.78072     -.886512 
 145           90           -2.1476       -14.29977     -1.89076 
 150           90           -3.425398     -13.91186     -3.053511
 155           90           -4.96323      -13.60353     -4.406529
 160           90           -6.868152     -13.36432     -5.990091
 165           90           -9.343726     -13.18618     -7.842874
 170           90           -12.85045     -13.06308     -9.945162
 175           90           -18.86258     -12.99086     -11.99157
 180           90           -999          -12.96706     -12.96706
 0             95           -34.16114     -13.00018     -12.96706
 5             95           -20.15917     -12.9416      -12.18695
 10            95           -13.49044     -12.93288     -10.19242
 15            95           -9.766738     -12.97724     -8.07154 
 20            95           -7.18201      -13.07958     -6.188024
 25            95           -5.210869     -13.24655     -4.576812
 30            95           -3.628382     -13.48674     -3.201386
 35            95           -2.318408     -13.81108     -2.020862
 40            95           -1.213981     -14.23339     -1.002522
 45            95           -.273672      -14.77136     -.12217  
 50            95            .529372      -15.44816      .637666 
 55            95            1.213093     -16.29526      1.289498
 60            95            1.789716     -17.35743      1.842249
 65            95            2.267652     -18.70259      2.302248
 70            95            2.652703     -20.44267      2.673944
 75            95            2.948839     -22.78543      2.960421
 80            95            3.158718     -26.19478      3.163756
 85            95            3.284027     -32.14747      3.285271
 90            95            3.325698     -292.7543      3.325698
 95            95            3.284027     -32.14747      3.285271
 100           95            3.158718     -26.19478      3.163756
 105           95            2.948839     -22.78543      2.960421
 110           95            2.652703     -20.44267      2.673944
 115           95            2.267652     -18.70259      2.302248
 120           95            1.789716     -17.35743      1.842249
 125           95            1.213093     -16.29526      1.289498
 130           95            .529372      -15.44816      .637666 
 135           95           -.273672      -14.77136     -.12217  
 140           95           -1.213981     -14.23339     -1.002522
 145           95           -2.318408     -13.81108     -2.020862
 150           95           -3.628382     -13.48674     -3.201386
 155           95           -5.210869     -13.24655     -4.576812
 160           95           -7.18201      -13.07958     -6.188024
 165           95           -9.766738     -12.97724     -8.07154 
 170           95           -13.49044     -12.93288     -10.19242
 175           95           -20.15917     -12.9416      -12.18695
 180           95           -34.16114     -13.00018     -12.96706
 0             100          -28.17365     -13.10003     -12.96706
 5             100          -21.54325     -12.96031     -12.39667
 10            100          -14.18643     -12.87301     -10.46996
 15            100          -10.23484     -12.84209     -8.335378
 20            100          -7.537261     -12.87304     -6.422285
 25            100          -5.498727     -12.97297     -4.78401 
 30            100          -3.871548     -13.15086     -3.386933
 35            100          -2.529959     -13.41789     -2.189657
 40            100          -1.402223     -13.78804     -1.158466
 45            100          -.444263      -14.27908     -.268279 
 50            100           .372367      -14.91419      .499067 
 55            100           1.066632     -15.72481      1.15661 
 60            100           1.651445     -16.75564      1.71367 
 65            100           2.135698     -18.0745       2.17688 
 70            100           2.525535     -19.79323      2.550923
 75            100           2.82517      -22.1195       2.839058
 80            100           3.037436     -25.51713      3.043489
 85            100           3.164132     -31.46282      3.165629
 90            100           3.206258     -292.9147      3.206258
 95            100           3.164132     -31.46282      3.165629
 100           100           3.037436     -25.51713      3.043489
 105           100           2.82517      -22.1195       2.839058
 110           100           2.525535     -19.79323      2.550923
 115           100           2.135698     -18.0745       2.17688 
 120           100           1.651445     -16.75564      1.71367 
 125           100           1.066632     -15.72481      1.15661 
 130           100           .372367      -14.91419      .499067 
 135           100          -.444263      -14.27908     -.268279 
 140           100          -1.402223     -13.78804     -1.158466
 145           100          -2.529959     -13.41789     -2.189657
 150           100          -3.871548     -13.15086     -3.386933
 155           100          -5.498727     -12.97297     -4.78401 
 160           100          -7.537261     -12.87304     -6.422285
 165           100          -10.23484     -12.84209     -8.335378
 170           100          -14.18643     -12.87301     -10.46996
 175           100          -21.54325     -12.96031     -12.39667
 180           100          -28.17365     -13.10003     -12.96706
 0             105          -24.70713     -13.26818     -12.96706
 5             105          -22.88949     -13.04913     -12.62044
 10            105          -14.933       -12.88617     -10.7798 
 15            105          -10.74715     -12.78389     -8.636899
 20            105          -7.93353      -12.74822     -6.69497 
 25            105          -5.826426     -12.78659     -5.029678
 30            105          -4.154422     -12.90817     -3.611214
 35            105          -2.781673     -13.12418     -2.397791
 40            105          -1.631427     -13.44858     -1.354634
 45            105          -.656814      -13.89902     -.455688 
 50            105           .172307      -14.49855      .317985 
 55            105           .875998      -15.27839      .980022 
 60            105           1.46792      -16.28308      1.540208
 65            105           1.957496     -17.5802       2.005537
 70            105           2.351251     -19.28144      2.380969
 75            105           2.653678     -21.59429      2.669977
 80            105           2.867806     -24.98243      2.874925
 85            105           2.995569     -30.92247      2.99733 
 90            105           3.038042     -293.1298      3.038042
 95            105           2.995569     -30.92247      2.99733 
 100           105           2.867806     -24.98243      2.874925
 105           105           2.653678     -21.59429      2.669977
 110           105           2.351251     -19.28144      2.380969
 115           105           1.957496     -17.5802       2.005537
 120           105           1.46792      -16.28308      1.540208
 125           105           .875998      -15.27839      .980022 
 130           105           .172307      -14.49855      .317985 
 135           105          -.656814      -13.89902     -.455688 
 140           105          -1.631427     -13.44858     -1.354634
 145           105          -2.781673     -13.12418     -2.397791
 150           105          -4.154422     -12.90817     -3.611214
 155           105          -5.826426     -12.78659     -5.029678
 160           105          -7.93353      -12.74822     -6.69497 
 165           105          -10.74715     -12.78389     -8.636899
 170           105          -14.933       -12.88617     -10.7798 
 175           105          -22.88949     -13.04913     -12.62044
 180           105          -24.70713     -13.26818     -12.96706
 0             110          -22.28603     -13.50734     -12.96706
 5             110          -23.92549     -13.21134     -12.8577 
 10            110          -15.71828     -12.97611     -11.12397
 15            110          -11.30109     -12.80673     -8.978687
 20            110          -8.369347     -12.70945     -7.008105
 25            110          -6.192642     -12.69184     -5.315134
 30            110          -4.475631     -12.76302     -3.874922
 35            110          -3.072077     -12.93411     -2.645425
 40            110          -1.900008     -13.21885     -1.590733
 45            110          -.909627      -13.63463     -.683715 
 50            110          -.069003      -14.2042       .095439 
 55            110           .643095      -14.95849      .761049 
 60            110           1.241137     -15.94171      1.323432
 65            110           1.73512      -17.2212       1.789999
 70            110           2.131992     -18.90837      2.166037
 75            110           2.436556     -21.2105       2.455269
 80            110           2.652062     -24.59112      2.660247
 85            110           2.780594     -30.52669      2.782621
 90            110           2.823313     -293.4827      2.823313
 95            110           2.780594     -30.52669      2.782621
 100           110           2.652062     -24.59112      2.660247
 105           110           2.436556     -21.2105       2.455269
 110           110           2.131992     -18.90837      2.166037
 115           110           1.73512      -17.2212       1.789999
 120           110           1.241137     -15.94171      1.323432
 125           110           .643095      -14.95849      .761049 
 130           110          -.069003      -14.2042       .095439 
 135           110          -.909627      -13.63463     -.683715 
 140           110          -1.900008     -13.21885     -1.590733
 145           110          -3.072077     -12.93411     -2.645425
 150           110          -4.475631     -12.76302     -3.874922
 155           110          -6.192642     -12.69184     -5.315134
 160           110          -8.369347     -12.70945     -7.008105
 165           110          -11.30109     -12.80673     -8.978687
 170           110          -15.71828     -12.97611     -11.12397
 175           110          -23.92549     -13.21134     -12.8577 
 180           110          -22.28603     -13.50734     -12.96706
 0             115          -20.44809     -13.82155     -12.96706
 5             115          -24.28982     -13.45153     -13.10747
 10            115          -16.52068     -13.14782     -11.50443
 15            115          -11.89176     -12.91587     -9.363398
 20            115          -8.841892     -12.76209     -7.363615
 25            115          -6.594939     -12.69399     -5.641416
 30            115          -4.832773     -12.7205      -4.17832 
 35            115          -3.398699     -12.85242     -2.932172
 40            115          -2.20539      -13.10315     -1.865828
 45            115          -1.20001      -13.48968     -.95095  
 50            115          -.348755      -14.03436     -.166747 
 55            115           .370846      -14.76772      .501873 
 60            115           .974121      -15.73361      1.065832
 65            115           1.471691     -16.99902      1.533017
 70            115           1.87096      -18.67509      1.90909 
 75            115           2.177069     -20.96885      2.198066
 80            115           2.393515     -24.34362      2.402711
 85            115           2.522546     -30.27574      2.524825
 90            115           2.565421     -293.9158      2.565421
 95            115           2.522546     -30.27574      2.524825
 100           115           2.393515     -24.34362      2.402711
 105           115           2.177069     -20.96885      2.198066
 110           115           1.87096      -18.67509      1.90909 
 115           115           1.471691     -16.99902      1.533017
 120           115           .974121      -15.73361      1.065832
 125           115           .370846      -14.76772      .501873 
 130           115          -.348755      -14.03436     -.166747 
 135           115          -1.20001      -13.48968     -.95095  
 140           115          -2.20539      -13.10315     -1.865828
 145           115          -3.398699     -12.85242     -2.932172
 150           115          -4.832773     -12.7205      -4.17832 
 155           115          -6.594939     -12.69399     -5.641416
 160           115          -8.841892     -12.76209     -7.363615
 165           115          -11.89176     -12.91587     -9.363398
 170           115          -16.52068     -13.14782     -11.50443
 175           115          -24.28982     -13.45153     -13.10747
 180           115          -20.44809     -13.82155     -12.96706
 0             120          -18.98766     -14.21645     -12.96706
 5             120          -23.84669     -13.77585     -13.36832
 10            120          -17.30545     -13.4078      -11.923  
 15            120          -12.51124     -13.11801     -9.793735
 20            120          -9.346687     -12.91284     -7.76327 
 25            120          -7.029576     -12.79959     -6.009189
 30            120          -5.222267     -12.78683     -4.521135
 35            120          -3.757947     -12.88493     -3.256993
 40            120          -2.543902     -13.10678     -2.178235
 45            120          -1.524185     -13.46889     -1.25516 
 50            120          -.66305       -13.99314     -.465863 
 55            120           .063267      -14.70961      .205618 
 60            120           .671005      -15.66174      .770891 
 65            120           1.171443     -16.91614      1.238381
 70            120           1.572477     -18.58364      1.614172
 75            120           1.879613     -20.87101      1.902605
 80            120           2.096613     -24.24136      2.106693
 85            120           2.225907     -30.17089      2.228407
 90            120           2.268858     -294.4498      2.268858
 95            120           2.225907     -30.17089      2.228407
 100           120           2.096613     -24.24136      2.106693
 105           120           1.879613     -20.87101      1.902605
 110           120           1.572477     -18.58364      1.614172
 115           120           1.171443     -16.91614      1.238381
 120           120           .671005      -15.66174      .770891 
 125           120           .063267      -14.70961      .205618 
 130           120          -.66305       -13.99314     -.465863 
 135           120          -1.524185     -13.46889     -1.25516 
 140           120          -2.543902     -13.10678     -2.178235
 145           120          -3.757947     -12.88493     -3.256993
 150           120          -5.222267     -12.78683     -4.521135
 155           120          -7.029576     -12.79959     -6.009189
 160           120          -9.346687     -12.91284     -7.76327 
 165           120          -12.51124     -13.11801     -9.793735
 170           120          -17.30545     -13.4078      -11.923  
 175           120          -23.84669     -13.77585     -13.36832
 180           120          -18.98766     -14.21645     -12.96706
 0             125          -17.79523     -14.69977     -12.96706
 5             125          -22.85317     -14.1925      -13.63825
 10            125          -18.02321     -13.76454     -12.38124
 15            125          -13.14792     -13.42172     -10.27236
 20            125          -9.877288     -13.17022     -8.208557
 25            125          -7.491294     -13.01693     -6.418586
 30            125          -5.639194     -12.96995     -4.902396
 35            125          -4.144974     -13.03907     -3.618035
 40            125          -2.910662     -13.23665     -2.525379
 45            125          -1.877184     -13.57862     -1.593156
 50            125          -1.006813     -14.08633     -.798192 
 55            125          -.274447      -14.78939     -.123535 
 60            125           .337098      -15.73079      .443189 
 65            125           .839794      -16.97677      .911007 
 70            125           1.242057     -18.63783      1.286476
 75            125           1.549781     -20.92047      1.574301
 80            125           1.767007     -24.2876       1.777767
 85            125           1.896362     -30.21526      1.899032
 90            125           1.939321     -295.0526      1.939321
 95            125           1.896362     -30.21526      1.899032
 100           125           1.767007     -24.2876       1.777767
 105           125           1.549781     -20.92047      1.574301
 110           125           1.242057     -18.63783      1.286476
 115           125           .839794      -16.97677      .911007 
 120           125           .337098      -15.73079      .443189 
 125           125          -.274447      -14.78939     -.123535 
 130           125          -1.006813     -14.08633     -.798192 
 135           125          -1.877184     -13.57862     -1.593156
 140           125          -2.910662     -13.23665     -2.525379
 145           125          -4.144974     -13.03907     -3.618035
 150           125          -5.639194     -12.96995     -4.902396
 155           125          -7.491294     -13.01693     -6.418586
 160           125          -9.877288     -13.17022     -8.208557
 165           125          -13.14792     -13.42172     -10.27236
 170           125          -18.02321     -13.76454     -12.38124
 175           125          -22.85317     -14.1925      -13.63825
 180           125          -17.79523     -14.69977     -12.96706
 0             130          -16.80571     -15.28198     -12.96706
 5             130          -21.66614     -14.71239     -13.91456
 10            130          -18.6147      -14.22919     -12.88012
 15            130          -13.78599     -13.83821     -10.80172
 20            130          -10.425       -13.54529     -8.700441
 25            130          -7.973117     -13.35681     -6.868943
 30            130          -6.077134     -13.28025     -5.32017 
 35            130          -4.553544     -13.3248      -4.01239 
 40            130          -3.299462     -13.50216     -2.903576
 45            130          -2.252752     -13.8277      -1.960606
 50            130          -1.3737       -14.32222     -1.158846
 55            130          -.635846      -15.01482     -.48022  
 60            130          -.021037      -15.94805      .088508 
 65            130           .483417      -17.18778      .557034 
 70            130           .886471      -18.84417      .932436 
 75            130           1.194423     -21.12345      1.219816
 80            130           1.41161      -24.48833      1.422759
 85            130           1.540863     -30.41469      1.54363 
 90            130           1.583775     -295.6318      1.583775
 95            130           1.540863     -30.41469      1.54363 
 100           130           1.41161      -24.48833      1.422759
 105           130           1.194423     -21.12345      1.219816
 110           130           .886471      -18.84417      .932436 
 115           130           .483417      -17.18778      .557034 
 120           130          -.021037      -15.94805      .088508 
 125           130          -.635846      -15.01482     -.48022  
 130           130          -1.3737       -14.32222     -1.158846
 135           130          -2.252752     -13.8277      -1.960606
 140           130          -3.299462     -13.50216     -2.903576
 145           130          -4.553544     -13.3248      -4.01239 
 150           130          -6.077134     -13.28025     -5.32017 
 155           130          -7.973117     -13.35681     -6.868943
 160           130          -10.425       -13.54529     -8.700441
 165           130          -13.78599     -13.83821     -10.80172
 170           130          -18.6147      -14.22919     -12.88012
 175           130          -21.66614     -14.71239     -13.91456
 180           130          -16.80571     -15.28198     -12.96706
 0             135          -15.97736     -15.97736     -12.96706
 5             135          -20.50587     -15.35019     -14.19377
 10            135          -19.0254      -14.81662     -13.41965
 15            135          -14.40566     -14.38235     -11.38369
 20            135          -10.97874     -14.05276     -9.238962
 25            135          -8.466213     -13.83362     -7.358378
 30            135          -6.528045     -13.73174     -5.771174
 35            135          -4.975927     -13.75563     -4.435763
 40            135          -3.702678     -13.91635     -3.307747
 45            135          -2.643267     -14.22867     -2.3518  
 50            135          -1.756032     -14.71282     -1.541576
 55            135          -1.013163     -15.39743     -.857723 
 60            135          -.39553       -16.32462     -.286036 
 65            135           .110287      -17.55987      .183921 
 70            135           .513789      -19.21301      .559794 
 75            135           .821691      -21.49005      .84712  
 80            135           1.038635     -24.85347      1.049804
 85            135           1.167659     -30.77901      1.170432
 90            135           1.210481     -296.6067      1.210481
 95            135           1.167659     -30.77901      1.170432
 100           135           1.038635     -24.85347      1.049804
 105           135           .821691      -21.49005      .84712  
 110           135           .513789      -19.21301      .559794 
 115           135           .110287      -17.55987      .183921 
 120           135          -.39553       -16.32462     -.286036 
 125           135          -1.013163     -15.39743     -.857723 
 130           135          -1.756032     -14.71282     -1.541576
 135           135          -2.643267     -14.22867     -2.3518  
 140           135          -3.702678     -13.91635     -3.307747
 145           135          -4.975927     -13.75563     -4.435763
 150           135          -6.528045     -13.73174     -5.771174
 155           135          -8.466213     -13.83362     -7.358378
 160           135          -10.97874     -14.05276     -9.238962
 165           135          -14.40566     -14.38235     -11.38369
 170           135          -19.0254      -14.81662     -13.41965
 175           135          -20.50587     -15.35019     -14.19377
 180           135          -15.97736     -15.97736     -12.96706
 0             140          -15.28198     -16.80571     -12.96706
 5             140          -19.46346     -16.12606     -14.47146
 10            140          -19.22694     -15.54715     -13.99814
 15            140          -14.98445     -15.07443     -12.01891
 20            140          -11.52515     -14.71273     -9.822531
 25            140          -8.959862     -14.46717     -7.883134
 30            140          -6.98221      -14.34382     -6.250213
 35            140          -5.40285      -14.35053     -4.881999
 40            140          -4.111232     -14.4977      -3.731052
 45            140          -3.039708     -14.79951     -2.759352
 50            140          -2.144773     -15.27568     -1.938547
 55            140          -1.397299     -15.95433     -1.247819
 60            140          -.777196      -16.87719     -.671877 
 65            140          -.270322      -18.10938     -.199473 
 70            140           .133377      -19.76044      .177655 
 75            140           .441029      -22.03611      .465511 
 80            140           .657584      -25.39868      .66834  
 85            140           .786293      -31.32377      .788964 
 90            140           .828997      -297.6467      .828997 
 95            140           .786293      -31.32377      .788964 
 100           140           .657584      -25.39868      .66834  
 105           140           .441029      -22.03611      .465511 
 110           140           .133377      -19.76044      .177655 
 115           140          -.270322      -18.10938     -.199473 
 120           140          -.777196      -16.87719     -.671877 
 125           140          -1.397299     -15.95433     -1.247819
 130           140          -2.144773     -15.27568     -1.938547
 135           140          -3.039708     -14.79951     -2.759352
 140           140          -4.111232     -14.4977      -3.731052
 145           140          -5.40285      -14.35053     -4.881999
 150           140          -6.98221      -14.34382     -6.250213
 155           140          -8.959862     -14.46717     -7.883134
 160           140          -11.52515     -14.71273     -9.822531
 165           140          -14.98445     -15.07443     -12.01891
 170           140          -19.22694     -15.54715     -13.99814
 175           140          -19.46346     -16.12606     -14.47146
 180           140          -15.28198     -16.80571     -12.96706
 0             145          -14.69977     -17.79523     -12.96706
 5             145          -18.56484     -17.06852     -14.74226
 10            145          -19.23137     -16.44942     -14.61105
 15            145          -15.50005     -15.94303     -12.7056 
 20            145          -12.04915     -15.5536      -10.44679
 25            145          -9.441629     -15.28553     -8.436608
 30            145          -7.428316     -15.14421     -6.749413
 35            145          -5.823554     -15.13679     -5.342508
 40            145          -4.514641     -15.27307     -4.164443
 45            145          -3.431715     -15.56667     -3.173885
 50            145          -2.529588     -16.03679     -2.340111
 55            145          -1.777892     -16.71115     -1.640621
 60            145          -1.155611     -17.63105     -1.058917
 65            145          -.647904      -18.86129     -.582862 
 70            145          -.244181      -20.51113     -.203532 
 75            145           .063093      -22.7861       .08557  
 80            145           .279173      -26.14829      .289048 
 85            145           .407514      -32.07321      .409967 
 90            145           .450082      -298.506       .450082 
 95            145           .407514      -32.07321      .409967 
 100           145           .279173      -26.14829      .289048 
 105           145           .063093      -22.7861       .08557  
 110           145          -.244181      -20.51113     -.203532 
 115           145          -.647904      -18.86129     -.582862 
 120           145          -1.155611     -17.63105     -1.058917
 125           145          -1.777892     -16.71115     -1.640621
 130           145          -2.529588     -16.03679     -2.340111
 135           145          -3.431715     -15.56667     -3.173885
 140           145          -4.514641     -15.27307     -4.164443
 145           145          -5.823554     -15.13679     -5.342508
 150           145          -7.428316     -15.14421     -6.749413
 155           145          -9.441629     -15.28553     -8.436608
 160           145          -12.04915     -15.5536      -10.44679
 165           145          -15.50005     -15.94303     -12.7056 
 170           145          -19.23137     -16.44942     -14.61105
 175           145          -18.56484     -17.06852     -14.74226
 180           145          -14.69977     -17.79523     -12.96706
 0             150          -14.21645     -18.98766     -12.96706
 5             150          -17.81026     -18.2196      -14.99981
 10            150          -19.08619     -17.56552     -15.24934
 15            150          -15.93441     -17.03017     -13.43753
 20            150          -12.53498     -16.61718     -11.10282
 25            150          -9.89779      -16.33025     -9.007995
 30            150          -7.853721     -16.17409     -7.257259
 35            150          -6.226        -16.15524     -5.805592
 40            150          -4.901207     -16.2829      -4.596223
 45            150          -3.807768     -16.57019     -3.583745
 50            150          -2.899029     -17.03585     -2.734646
 55            150          -2.143494     -17.70719     -2.02452 
 60            150          -1.51929      -18.62518     -1.435537
 65            150          -1.010916     -19.85431     -.954601 
 70            150          -.607274      -21.50359     -.572086 
 75            150          -.30044       -23.77833     -.280985 
 80            150          -.084873      -27.14048     -.076326 
 85            150           .043081      -33.06542      .045204 
 90            150           .085508      -299.9279      .085508 
 95            150           .043081      -33.06542      .045204 
 100           150          -.084873      -27.14048     -.076326 
 105           150          -.30044       -23.77833     -.280985 
 110           150          -.607274      -21.50359     -.572086 
 115           150          -1.010916     -19.85431     -.954601 
 120           150          -1.51929      -18.62518     -1.435537
 125           150          -2.143494     -17.70719     -2.02452 
 130           150          -2.899029     -17.03585     -2.734646
 135           150          -3.807768     -16.57019     -3.583745
[...]
 150           320          -3.224926     -22.32723     -3.17185 
 155           320          -4.318863     -21.33555     -4.233389
 160           320          -5.624934     -20.33734     -5.48062 
 165           320          -7.214241     -19.36215     -6.957157
 170           320          -9.202527     -18.436       -8.713049
 175           320          -11.78733     -17.57903     -10.77148
 180           320          -15.28198     -16.80571     -12.96706
 0             325          -14.69977     -17.79523     -12.96706
 5             325          -11.47837     -18.62219     -10.71187
 10            325          -9.045076     -19.53793     -8.673713
 15            325          -7.150023     -20.52467     -6.954804
 20            325          -5.624964     -21.55612     -5.515521
 25            325          -4.367284     -22.59686     -4.302483
 30            325          -3.312271     -23.60578     -3.271869
 35            325          -2.417243     -24.5459      -2.390722
 40            325          -1.652932     -25.39931     -1.634641
 45            325          -.998642      -26.18002     -.98549  
 50            325          -.439394      -26.93637     -.429675 
 55            325           .035833      -27.74299      .04307  
 60            325           .435231      -28.69141      .440539 
 65            325           .764911      -29.88984      .768645 
 70            325           1.029417     -31.48033      1.031853
 75            325           1.232082     -33.69111      1.23348 
 80            325           1.375281     -36.99895      1.375912
 85            325           1.460596     -42.88817      1.460756
 90            325           1.488936     -297.6827      1.488936
 95            325           1.460596     -42.88817      1.460756
 100           325           1.375281     -36.99895      1.375912
 105           325           1.232082     -33.69111      1.23348 
 110           325           1.029417     -31.48033      1.031853
 115           325           .764911      -29.88984      .768645 
 120           325           .435231      -28.69141      .440539 
 125           325           .035833      -27.74299      .04307  
 130           325          -.439394      -26.93637     -.429675 
 135           325          -.998642      -26.18002     -.98549  
 140           325          -1.652932     -25.39931     -1.634641
 145           325          -2.417243     -24.5459      -2.390722
 150           325          -3.312271     -23.60578     -3.271869
 155           325          -4.367284     -22.59686     -4.302483
 160           325          -5.624964     -21.55612     -5.515521
 165           325          -7.150023     -20.52467     -6.954804
 170           325          -9.045076     -19.53793     -8.673713
 175           325          -11.47837     -18.62219     -10.71187
 180           325          -14.69977     -17.79523     -12.96706
 0             330          -14.21645     -18.98766     -12.96706
 5             330          -11.21757     -19.86212     -10.66138
 10            330          -8.913718     -20.83012     -8.642987
 15            330          -7.100829     -21.87037     -6.958371
 20            330          -5.633531     -22.94986     -5.553703
 25            330          -4.419962     -24.0228      -4.372632
 30            330          -3.400791     -25.0356      -3.371087
 35            330          -2.536187     -25.94187     -2.516407
 40            330          -1.798442     -26.72385     -1.784493
 45            330          -1.16771      -27.4073      -1.157399
 50            330          -.629456      -28.05826     -.621612 
 55            330          -.172863      -28.76655     -.166863 
 60            330           .210201      -29.63216      .214702 
 65            330           .525869      -30.76562      .529093 
 70            330           .778751      -32.30779      .780884 
 75            330           .972263      -34.48441      .973499 
 80            330           1.108857     -37.76979      1.109419
 85            330           1.190182     -43.64632      1.190324
 90            330           1.217186     -298.8227      1.217186
 95            330           1.190182     -43.64632      1.190324
 100           330           1.108857     -37.76979      1.109419
 105           330           .972263      -34.48441      .973499 
 110           330           .778751      -32.30779      .780884 
 115           330           .525869      -30.76562      .529093 
 120           330           .210201      -29.63216      .214702 
 125           330          -.172863      -28.76655     -.166863 
 130           330          -.629456      -28.05826     -.621612 
 135           330          -1.16771      -27.4073      -1.157399
 140           330          -1.798442     -26.72385     -1.784493
 145           330          -2.536187     -25.94187     -2.516407
 150           330          -3.400791     -25.0356      -3.371087
 155           330          -4.419962     -24.0228      -4.372632
 160           330          -5.633531     -22.94986     -5.553703
 165           330          -7.100829     -21.87037     -6.958371
 170           330          -8.913718     -20.83012     -8.642987
 175           330          -11.21757     -19.86212     -10.66138
 180           330          -14.21645     -18.98766     -12.96706
 0             335          -13.82155     -20.44809     -12.96706
 5             335          -11.00179     -21.36351     -10.61953
 10            335          -8.806306     -22.37669     -8.619507
 15            335          -7.064045     -23.46282     -6.965649
 20            335          -5.64727      -24.58203     -5.59212 
 25            335          -4.472755     -25.67773     -4.439972
 30            335          -3.485601     -26.68393     -3.464856
 35            335          -2.648361     -27.54649     -2.634324
 40            335          -1.934637     -28.25153     -1.924507
 45            335          -1.325297     -28.84011     -1.317608
 50            335          -.806175      -29.39629     -.800171 
 55            335          -.366613      -30.02223     -.361914 
 60            335           .001485      -30.82261      .005076 
 65            335           .304291      -31.90744      .3069   
 70            335           .546485      -33.41494      .548229 
 75            335           .73157       -35.56786      .732588 
 80            335           .862078      -38.83804      .862543 
 85            335           .939722      -44.70613      .939841 
 90            335           .965496      -999           .965496 
 95            335           .939722      -44.70613      .939841 
 100           335           .862078      -38.83804      .862543 
 105           335           .73157       -35.56786      .732588 
 110           335           .546485      -33.41494      .548229 
 115           335           .304291      -31.90744      .3069   
 120           335           .001485      -30.82261      .005076 
 125           335          -.366613      -30.02223     -.361914 
 130           335          -.806175      -29.39629     -.800171 
 135           335          -1.325297     -28.84011     -1.317608
 140           335          -1.934637     -28.25153     -1.924507
 145           335          -2.648361     -27.54649     -2.634324
 150           335          -3.485601     -26.68393     -3.464856
 155           335          -4.472755     -25.67773     -4.439972
 160           335          -5.64727      -24.58203     -5.59212 
 165           335          -7.064045     -23.46282     -6.965649
 170           335          -8.806306     -22.37669     -8.619507
 175           335          -11.00179     -21.36351     -10.61953
 180           335          -13.82155     -20.44809     -12.96706
 0             340          -13.50734     -22.28603     -12.96706
 5             340          -10.8285      -23.23547     -10.5859 
 10            340          -8.720994     -24.28627     -8.602063
 15            340          -7.037343     -25.4103      -6.974631
 20            340          -5.663116     -26.56107     -5.627942
 25            340          -4.521833     -27.67162     -4.500855
 30            340          -3.562132     -28.66453     -3.548739
 35            340          -2.74849      -29.4802      -2.739282
 40            340          -2.055575     -30.11157     -2.048785
 45            340          -1.464836     -30.61613     -1.459559
 50            340          -.962399      -31.09385     -.958188 
 55            340          -.537727      -31.65554     -.534371 
 60            340          -.182739      -32.40752     -.180138 
 65            340           .108778      -33.45778      .110688 
 70            340           .34158       -34.94148      .342867 
 75            340           .51925       -37.0786       .520005 
 80            340           .644398      -40.33889      .644745 
 85            340           .718801      -46.20157      .718889 
 90            340           .743489      -999           .743489 
 95            340           .718801      -46.20157      .718889 
 100           340           .644398      -40.33889      .644745 
 105           340           .51925       -37.0786       .520005 
 110           340           .34158       -34.94148      .342867 
 115           340           .108778      -33.45778      .110688 
 120           340          -.182739      -32.40752     -.180138 
 125           340          -.537727      -31.65554     -.534371 
 130           340          -.962399      -31.09385     -.958188 
 135           340          -1.464836     -30.61613     -1.459559
 140           340          -2.055575     -30.11157     -2.048785
 145           340          -2.74849      -29.4802      -2.739282
 150           340          -3.562132     -28.66453     -3.548739
 155           340          -4.521833     -27.67162     -4.500855
 160           340          -5.663116     -26.56107     -5.627942
 165           340          -7.037343     -25.4103      -6.974631
 170           340          -8.720994     -24.28627     -8.602063
 175           340          -10.8285      -23.23547     -10.5859 
 180           340          -13.50734     -22.28603     -12.96706
 0             345          -13.26818     -24.70713     -12.96706
 5             345          -10.69572     -25.68338     -10.56013
 10            345          -8.656252     -26.76384     -8.589619
 15            345          -7.018736     -27.91753     -6.983568
 20            345          -5.678403     -29.0921      -5.65866 
 25            345          -4.563818     -30.21143     -4.552003
 30            345          -3.626308     -31.18853     -3.618702
 35            345          -2.831833     -31.96054     -2.826529
 40            345          -2.155884     -32.52856     -2.1519  
 45            345          -1.580354     -32.96514     -1.577198
 50            345          -1.091594     -33.38274     -1.089032
 55            345          -.679151      -33.89745     -.677082 
 60            345          -.334951      -34.61543     -.33333  
 65            345          -.052735      -35.64221     -.051536 
 70            345           .172318      -37.11022      .17313  
 75            345           .343866      -39.2372       .344344 
 80            345           .464586      -42.49127      .464806 
 85            345           .536309      -48.3506       .536365 
 90            345           .5601        -999           .5601   
 95            345           .536309      -48.3506       .536365 
 100           345           .464586      -42.49127      .464806 
 105           345           .343866      -39.2372       .344344 
 110           345           .172318      -37.11022      .17313  
 115           345          -.052735      -35.64221     -.051536 
 120           345          -.334951      -34.61543     -.33333  
 125           345          -.679151      -33.89745     -.677082 
 130           345          -1.091594     -33.38274     -1.089032
 135           345          -1.580354     -32.96514     -1.577198
 140           345          -2.155884     -32.52856     -2.1519  
 145           345          -2.831833     -31.96054     -2.826529
 150           345          -3.626308     -31.18853     -3.618702
 155           345          -4.563818     -30.21143     -4.552003
 160           345          -5.678403     -29.0921      -5.65866 
 165           345          -7.018736     -27.91753     -6.983568
 170           345          -8.656252     -26.76384     -8.589619
 175           345          -10.69572     -25.68338     -10.56013
 180           345          -13.26818     -24.70713     -12.96706
 0             350          -13.10003     -28.17365     -12.96706
 5             350          -10.60192     -29.16922     -10.54193
 10            350          -8.610876     -30.27108     -8.581345
 15            350          -7.006623     -31.44604     -6.991025
 20            350          -5.690951     -32.63712     -5.682187
 25            350          -4.595916     -33.76107     -4.590656
 30            350          -3.674735     -34.7237      -3.671325
 35            350          -2.894413     -35.46065     -2.892009
 40            350          -2.231026     -35.98053     -2.229195
 45            350          -1.666786     -36.36777     -1.665315
 50            350          -1.188196     -36.74346     -1.186988
 55            350          -.784863      -37.22656     -.783878 
 60            350          -.448707      -37.92233     -.44793  
 65            350          -.173436      -38.93417     -.172858 
 70            350           .045826      -40.39244      .046219 
 75            350           .212796      -42.51325      .213028 
 80            350           .330203      -45.7636       .33031  
 85            350           .399919      -51.62096      .399947 
 90            350           .423038      -999           .423038 
 95            350           .399919      -51.62096      .399947 
 100           350           .330203      -45.7636       .33031  
 105           350           .212796      -42.51325      .213028 
 110           350           .045826      -40.39244      .046219 
 115           350          -.173436      -38.93417     -.172858 
 120           350          -.448707      -37.92233     -.44793  
 125           350          -.784863      -37.22656     -.783878 
 130           350          -1.188196     -36.74346     -1.186988
 135           350          -1.666786     -36.36777     -1.665315
 140           350          -2.231026     -35.98053     -2.229195
 145           350          -2.894413     -35.46065     -2.892009
 150           350          -3.674735     -34.7237      -3.671325
 155           350          -4.595916     -33.76107     -4.590656
 160           350          -5.690951     -32.63712     -5.682187
 165           350          -7.006623     -31.44604     -6.991025
 170           350          -8.610876     -30.27108     -8.581345
 175           350          -10.60192     -29.16922     -10.54193
 180           350          -13.10003     -28.17365     -12.96706
 0             355          -13.00018     -34.16114     -12.96706
 5             355          -10.54605     -35.16837     -10.5311 
 10            355          -8.583999     -36.28316     -8.576629
 15            355          -6.999833     -37.47089     -6.995938
 20            355          -5.699144     -38.67167     -5.696954
 25            355          -4.616039     -39.79767     -4.614722
 30            355          -3.704853     -40.7503      -3.703995
 35            355          -2.933217     -41.46466     -2.932608
 40            355          -2.277555     -41.95462     -2.277087
 45            355          -1.720266     -42.31214     -1.719887
 50            355          -1.247948     -42.66324     -1.247634
 55            355          -.850237      -43.12821     -.84998  
 60            355          -.519052      -43.8115      -.518848 
 65            355          -.248074      -44.81511     -.247923 
 70            355          -.032394      -46.26809     -.03229  
 75            355           .131741      -48.38561      .131802 
 80            355           .247096      -51.634        .247124 
 85            355           .31557       -57.49034      .315577 
 90            355           .338273      -999           .338273 
 95            355           .31557       -57.49034      .315577 
 100           355           .247096      -51.634        .247124 
 105           355           .131741      -48.38561      .131802 
 110           355          -.032394      -46.26809     -.03229  
 115           355          -.248074      -44.81511     -.247923 
 120           355          -.519052      -43.8115      -.518848 
 125           355          -.850237      -43.12821     -.84998  
 130           355          -1.247948     -42.66324     -1.247634
 135           355          -1.720266     -42.31214     -1.719887
 140           355          -2.277555     -41.95462     -2.277087
 145           355          -2.933217     -41.46466     -2.932608
 150           355          -3.704853     -40.7503      -3.703995
 155           355          -4.616039     -39.79767     -4.614722
 160           355          -5.699144     -38.67167     -5.696954
 165           355          -6.999833     -37.47089     -6.995938
 170           355          -8.583999     -36.28316     -8.576629
 175           355          -10.54605     -35.16837     -10.5311 
 180           355          -13.00018     -34.16114     -12.96706
 0             360          -12.96706     -999          -12.96706
 5             360          -10.5275      -999          -10.5275 
 10            360          -8.575099     -999          -8.575099
 15            360          -6.99765      -999          -6.99765 
 20            360          -5.701987     -999          -5.701987
 25            360          -4.622892     -999          -4.622892
 30            360          -3.715072     -999          -3.715072
 35            360          -2.946365     -999          -2.946365
 40            360          -2.293309     -999          -2.293309
 45            360          -1.738369     -999          -1.738369
 50            360          -1.268169     -999          -1.268169
 55            360          -.87236       -999          -.87236  
 60            360          -.542856      -999          -.542856 
 65            360          -.273332      -999          -.273332 
 70            360          -.058864      -999          -.058864 
 75            360           .104311      -999           .104311 
 80            360           .218971      -999           .218971 
 85            360           .287024      -999           .287024 
 90            360           .309586      -999           .309586 
 95            360           .287024      -999           .287024 
 100           360           .218971      -999           .218971 
 105           360           .104311      -999           .104311 
 110           360          -.058864      -999          -.058864 
 115           360          -.273332      -999          -.273332 
 120           360          -.542856      -999          -.542856 
 125           360          -.87236       -999          -.87236  
 130           360          -1.268169     -999          -1.268169
 135           360          -1.738369     -999          -1.738369
 140           360          -2.293309     -999          -2.293309
 145           360          -2.946365     -999          -2.946365
 150           360          -3.715072     -999          -3.715072
 155           360          -4.622892     -999          -4.622892
 160           360          -5.701987     -999          -5.701987
 165           360          -6.99765      -999          -6.99765 
 170           360          -8.575099     -999          -8.575099
 175           360          -10.5275      -999          -10.5275 
 180           360          -12.96706     -999          -12.96706