                   ****************************************
                     MINI-NUMERICAL ELECTROMAGNETICS CODE
                                   MININEC
                       2025-01-04              11:38:23
                   ****************************************
 
FREQUENCY (MHZ): 299.8
    WAVE LENGTH =  1 METERS
 
ENVIRONMENT (+1 FOR FREE SPACE, -1 FOR GROUND PLANE):  1
 
NO. OF WIRES: 22
 
WIRE NO.1
            COORDINATES                                 END         NO. OF
   X             Y             Z          RADIUS     CONNECTION     SEGMENTS
 .15915494     0             0                           0
 .15270805     0             .04483913     .00674        0             1
 
WIRE NO.2
            COORDINATES                                 END         NO. OF
   X             Y             Z          RADIUS     CONNECTION     SEGMENTS
 .15270805     0             .04483913                   1
 .13388966     0             .08604566     .00674        0             1
 
WIRE NO.3
            COORDINATES                                 END         NO. OF
   X             Y             Z          RADIUS     CONNECTION     SEGMENTS
 .13388966     0             .08604566                   2
 .10422432     0             .12028128     .00674        0             1
 
WIRE NO.4
            COORDINATES                                 END         NO. OF
   X             Y             Z          RADIUS     CONNECTION     SEGMENTS
 .10422432     0             .12028128                   3
 .06611535     0             .14477243     .00674        0             1
 
WIRE NO.5
            COORDINATES                                 END         NO. OF
   X             Y             Z          RADIUS     CONNECTION     SEGMENTS
 .06611535     0             .14477243                   4
 .02265011     0             .15753498     .00674        0             1
 
WIRE NO.6
            COORDINATES                                 END         NO. OF
   X             Y             Z          RADIUS     CONNECTION     SEGMENTS
 .02265011     0             .15753498                   5
-.02265011     0             .15753498     .00674        0             1
 
WIRE NO.7
            COORDINATES                                 END         NO. OF
   X             Y             Z          RADIUS     CONNECTION     SEGMENTS
-.02265011     0             .15753498                   6
-.06611535     0             .14477243     .00674        0             1
 
WIRE NO.8
            COORDINATES                                 END         NO. OF
   X             Y             Z          RADIUS     CONNECTION     SEGMENTS
-.06611535     0             .14477243                   7
-.10422432     0             .12028128     .00674        0             1
 
WIRE NO.9
            COORDINATES                                 END         NO. OF
   X             Y             Z          RADIUS     CONNECTION     SEGMENTS
-.10422432     0             .12028128                   8
-.13388966     0             .08604566     .00674        0             1
 
WIRE NO.10
            COORDINATES                                 END         NO. OF
   X             Y             Z          RADIUS     CONNECTION     SEGMENTS
-.13388966     0             .08604566                   9
-.15270805     0             .04483913     .00674        0             1
 
WIRE NO.11
            COORDINATES                                 END         NO. OF
   X             Y             Z          RADIUS     CONNECTION     SEGMENTS
-.15270805     0             .04483913                   10
-.15915494     0             1.949086E-17  .00674        0             1
 
WIRE NO.12
            COORDINATES                                 END         NO. OF
   X             Y             Z          RADIUS     CONNECTION     SEGMENTS
-.15915494     0             1.949086E-17                11
-.15270805     0            -.04483913     .00674        0             1
 
WIRE NO.13
            COORDINATES                                 END         NO. OF
   X             Y             Z          RADIUS     CONNECTION     SEGMENTS
-.15270805     0            -.04483913                   12
-.13388966     0            -.08604566     .00674        0             1
 
WIRE NO.14
            COORDINATES                                 END         NO. OF
   X             Y             Z          RADIUS     CONNECTION     SEGMENTS
-.13388966     0            -.08604566                   13
-.10422432     0            -.12028128     .00674        0             1
 
WIRE NO.15
            COORDINATES                                 END         NO. OF
   X             Y             Z          RADIUS     CONNECTION     SEGMENTS
-.10422432     0            -.12028128                   14
-.06611535     0            -.14477243     .00674        0             1
 
WIRE NO.16
            COORDINATES                                 END         NO. OF
   X             Y             Z          RADIUS     CONNECTION     SEGMENTS
-.06611535     0            -.14477243                   15
-.02265011     0            -.15753498     .00674        0             1
 
WIRE NO.17
            COORDINATES                                 END         NO. OF
   X             Y             Z          RADIUS     CONNECTION     SEGMENTS
-.02265011     0            -.15753498                   16
 .02265011     0            -.15753498     .00674        0             1
 
WIRE NO.18
            COORDINATES                                 END         NO. OF
   X             Y             Z          RADIUS     CONNECTION     SEGMENTS
 .02265011     0            -.15753498                   17
 .06611535     0            -.14477243     .00674        0             1
 
WIRE NO.19
            COORDINATES                                 END         NO. OF
   X             Y             Z          RADIUS     CONNECTION     SEGMENTS
 .06611535     0            -.14477243                   18
 .10422432     0            -.12028128     .00674        0             1
 
WIRE NO.20
            COORDINATES                                 END         NO. OF
   X             Y             Z          RADIUS     CONNECTION     SEGMENTS
 .10422432     0            -.12028128                   19
 .13388966     0            -.08604566     .00674        0             1
 
WIRE NO.21
            COORDINATES                                 END         NO. OF
   X             Y             Z          RADIUS     CONNECTION     SEGMENTS
 .13388966     0            -.08604566                   20
 .15270805     0            -.04483913     .00674        0             1
 
WIRE NO.22
            COORDINATES                                 END         NO. OF
   X             Y             Z          RADIUS     CONNECTION     SEGMENTS
 .15270805     0            -.04483913                   21
 .15915494     0             0             .00674        1             1
 
                  **** ANTENNA GEOMETRY ****
 
WIRE NO.  1 COORDINATES                                 CONNECTION PULSE
X             Y             Z             RADIUS        END1 END2  NO.
-             -             -                 -          -    -    0
 
WIRE NO.  2 COORDINATES                                 CONNECTION PULSE
X             Y             Z             RADIUS        END1 END2  NO.
 .15270805     0             .04483913     .00674         1    0    1
 
WIRE NO.  3 COORDINATES                                 CONNECTION PULSE
X             Y             Z             RADIUS        END1 END2  NO.
 .13388966     0             .08604566     .00674         2    0    2
 
WIRE NO.  4 COORDINATES                                 CONNECTION PULSE
X             Y             Z             RADIUS        END1 END2  NO.
 .10422432     0             .12028128     .00674         3    0    3
 
WIRE NO.  5 COORDINATES                                 CONNECTION PULSE
X             Y             Z             RADIUS        END1 END2  NO.
 .06611535     0             .14477243     .00674         4    0    4
 
WIRE NO.  6 COORDINATES                                 CONNECTION PULSE
X             Y             Z             RADIUS        END1 END2  NO.
 .02265011     0             .15753498     .00674         5    0    5
 
WIRE NO.  7 COORDINATES                                 CONNECTION PULSE
X             Y             Z             RADIUS        END1 END2  NO.
-.02265011     0             .15753498     .00674         6    0    6
 
WIRE NO.  8 COORDINATES                                 CONNECTION PULSE
X             Y             Z             RADIUS        END1 END2  NO.
-.06611535     0             .14477243     .00674         7    0    7
 
WIRE NO.  9 COORDINATES                                 CONNECTION PULSE
X             Y             Z             RADIUS        END1 END2  NO.
-.10422432     0             .12028128     .00674         8    0    8
 
WIRE NO.  10 COORDINATES                                CONNECTION PULSE
X             Y             Z             RADIUS        END1 END2  NO.
-.13388966     0             .08604566     .00674         9    0    9
 
WIRE NO.  11 COORDINATES                                CONNECTION PULSE
X             Y             Z             RADIUS        END1 END2  NO.
-.15270805     0             .04483913     .00674        10    0   10
 
WIRE NO.  12 COORDINATES                                CONNECTION PULSE
X             Y             Z             RADIUS        END1 END2  NO.
-.15915494     0             1.949086E-17  .00674        11    0   11
 
WIRE NO.  13 COORDINATES                                CONNECTION PULSE
X             Y             Z             RADIUS        END1 END2  NO.
-.15270805     0            -.04483913     .00674        12    0   12
 
WIRE NO.  14 COORDINATES                                CONNECTION PULSE
X             Y             Z             RADIUS        END1 END2  NO.
-.13388966     0            -.08604566     .00674        13    0   13
 
WIRE NO.  15 COORDINATES                                CONNECTION PULSE
X             Y             Z             RADIUS        END1 END2  NO.
-.10422432     0            -.12028128     .00674        14    0   14
 
WIRE NO.  16 COORDINATES                                CONNECTION PULSE
X             Y             Z             RADIUS        END1 END2  NO.
-.06611535     0            -.14477243     .00674        15    0   15
 
WIRE NO.  17 COORDINATES                                CONNECTION PULSE
X             Y             Z             RADIUS        END1 END2  NO.
-.02265011     0            -.15753498     .00674        16    0   16
 
WIRE NO.  18 COORDINATES                                CONNECTION PULSE
X             Y             Z             RADIUS        END1 END2  NO.
 .02265011     0            -.15753498     .00674        17    0   17
 
WIRE NO.  19 COORDINATES                                CONNECTION PULSE
X             Y             Z             RADIUS        END1 END2  NO.
 .06611535     0            -.14477243     .00674        18    0   18
 
WIRE NO.  20 COORDINATES                                CONNECTION PULSE
X             Y             Z             RADIUS        END1 END2  NO.
 .10422432     0            -.12028128     .00674        19    0   19
 
WIRE NO.  21 COORDINATES                                CONNECTION PULSE
X             Y             Z             RADIUS        END1 END2  NO.
 .13388966     0            -.08604566     .00674        20    0   20
 
WIRE NO.  22 COORDINATES                                CONNECTION PULSE
X             Y             Z             RADIUS        END1 END2  NO.
 .15270805     0            -.04483913     .00674        21   22   21
 .15915494     0             0             .00674        22    1   22
 
NO. OF SOURCES :  1
PULSE NO., VOLTAGE MAGNITUDE, PHASE (DEGREES):  22, 1, 0
NUMBER OF LOADS 0
 
********************    SOURCE DATA     ********************
PULSE  22     VOLTAGE = ( 1, 0J)
              CURRENT = ( .00491874, .00496688J)
              IMPEDANCE = ( 100.662,-101.64718J)
              POWER =  .00245937 WATTS
 
********************    CURRENT DATA    ********************
 
WIRE NO. 1:
PULSE         REAL          IMAGINARY     MAGNITUDE     PHASE
 NO.          (AMPS)        (AMPS)        (AMPS)        (DEGREES)
J              .00491874     .00496688     .00699027     45.27901
J              .0047216      .0034107      .00582463     35.842884
 
WIRE NO. 2:
PULSE         REAL          IMAGINARY     MAGNITUDE     PHASE
 NO.          (AMPS)        (AMPS)        (AMPS)        (DEGREES)
J              .0047216      .0034107      .00582463     35.842884
J              .00414655     .00233782     .00476018     29.414248
 
WIRE NO. 3:
PULSE         REAL          IMAGINARY     MAGNITUDE     PHASE
 NO.          (AMPS)        (AMPS)        (AMPS)        (DEGREES)
J              .00414655     .00233782     .00476018     29.414248
J              .00324131     .00125855     .00347708     21.220386
 
WIRE NO. 4:
PULSE         REAL          IMAGINARY     MAGNITUDE     PHASE
 NO.          (AMPS)        (AMPS)        (AMPS)        (DEGREES)
J              .00324131     .00125855     .00347708     21.220386
J              .00208064     2.012843E-04  .00209035     5.5256874
 
WIRE NO. 5:
PULSE         REAL          IMAGINARY     MAGNITUDE     PHASE
 NO.          (AMPS)        (AMPS)        (AMPS)        (DEGREES)
J              .00208064     2.012843E-04  .00209035     5.5256874
J              7.598445E-04 -8.009970E-04  .00110407    -46.510286
 
WIRE NO. 6:
PULSE         REAL          IMAGINARY     MAGNITUDE     PHASE
 NO.          (AMPS)        (AMPS)        (AMPS)        (DEGREES)
J              7.598445E-04 -8.009970E-04  .00110407    -46.510286
J             -6.133564E-04 -.00171205     .0018186     -109.7105
 
WIRE NO. 7:
PULSE         REAL          IMAGINARY     MAGNITUDE     PHASE
 NO.          (AMPS)        (AMPS)        (AMPS)        (DEGREES)
J             -6.133564E-04 -.00171205     .0018186     -109.7105
J             -.00192777    -.00249968     .00315669    -127.63969
 
WIRE NO. 8:
PULSE         REAL          IMAGINARY     MAGNITUDE     PHASE
 NO.          (AMPS)        (AMPS)        (AMPS)        (DEGREES)
J             -.00192777    -.00249968     .00315669    -127.63969
J             -.00307771    -.00313781     .00439524    -134.44607
 
WIRE NO. 9:
PULSE         REAL          IMAGINARY     MAGNITUDE     PHASE
 NO.          (AMPS)        (AMPS)        (AMPS)        (DEGREES)
J             -.00307771    -.00313781     .00439524    -134.44607
J             -.00397127    -.00360685     .00536473    -137.75318
 
WIRE NO. 10:
PULSE         REAL          IMAGINARY     MAGNITUDE     PHASE
 NO.          (AMPS)        (AMPS)        (AMPS)        (DEGREES)
J             -.00397127    -.00360685     .00536473    -137.75318
J             -.0045374     -.00389342     .00597885    -139.36797
 
WIRE NO. 11:
PULSE         REAL          IMAGINARY     MAGNITUDE     PHASE
 NO.          (AMPS)        (AMPS)        (AMPS)        (DEGREES)
J             -.0045374     -.00389342     .00597885    -139.36797
J             -.00473121    -.00398979     .00618892    -139.8594
 
WIRE NO. 12:
PULSE         REAL          IMAGINARY     MAGNITUDE     PHASE
 NO.          (AMPS)        (AMPS)        (AMPS)        (DEGREES)
J             -.00473121    -.00398979     .00618892    -139.8594
J             -.0045374     -.00389342     .00597885    -139.36797
 
WIRE NO. 13:
PULSE         REAL          IMAGINARY     MAGNITUDE     PHASE
 NO.          (AMPS)        (AMPS)        (AMPS)        (DEGREES)
J             -.0045374     -.00389342     .00597885    -139.36797
J             -.00397127    -.00360685     .00536473    -137.75318
 
WIRE NO. 14:
PULSE         REAL          IMAGINARY     MAGNITUDE     PHASE
 NO.          (AMPS)        (AMPS)        (AMPS)        (DEGREES)
J             -.00397127    -.00360685     .00536473    -137.75318
J             -.00307771    -.00313781     .00439524    -134.44607
 
WIRE NO. 15:
PULSE         REAL          IMAGINARY     MAGNITUDE     PHASE
 NO.          (AMPS)        (AMPS)        (AMPS)        (DEGREES)
J             -.00307771    -.00313781     .00439524    -134.44607
J             -.00192777    -.00249968     .00315669    -127.63969
 
WIRE NO. 16:
PULSE         REAL          IMAGINARY     MAGNITUDE     PHASE
 NO.          (AMPS)        (AMPS)        (AMPS)        (DEGREES)
J             -.00192777    -.00249968     .00315669    -127.63969
J             -6.133564E-04 -.00171205     .0018186     -109.7105
 
WIRE NO. 17:
PULSE         REAL          IMAGINARY     MAGNITUDE     PHASE
 NO.          (AMPS)        (AMPS)        (AMPS)        (DEGREES)
J             -6.133564E-04 -.00171205     .0018186     -109.7105
J              7.598445E-04 -8.009970E-04  .00110407    -46.510286
 
WIRE NO. 18:
PULSE         REAL          IMAGINARY     MAGNITUDE     PHASE
 NO.          (AMPS)        (AMPS)        (AMPS)        (DEGREES)
J              7.598445E-04 -8.009970E-04  .00110407    -46.510286
J              .00208064     2.012843E-04  .00209035     5.5256874
 
WIRE NO. 19:
PULSE         REAL          IMAGINARY     MAGNITUDE     PHASE
 NO.          (AMPS)        (AMPS)        (AMPS)        (DEGREES)
J              .00208064     2.012843E-04  .00209035     5.5256874
J              .00324131     .00125855     .00347708     21.220386
 
WIRE NO. 20:
PULSE         REAL          IMAGINARY     MAGNITUDE     PHASE
 NO.          (AMPS)        (AMPS)        (AMPS)        (DEGREES)
J              .00324131     .00125855     .00347708     21.220386
J              .00414655     .00233782     .00476018     29.414248
 
WIRE NO. 21:
PULSE         REAL          IMAGINARY     MAGNITUDE     PHASE
 NO.          (AMPS)        (AMPS)        (AMPS)        (DEGREES)
J              .00414655     .00233782     .00476018     29.414248
J              .0047216      .0034107      .00582463     35.842884
 
WIRE NO. 22:
PULSE         REAL          IMAGINARY     MAGNITUDE     PHASE
 NO.          (AMPS)        (AMPS)        (AMPS)        (DEGREES)
J              .0047216      .0034107      .00582463     35.842884
J              .00491874     .00496688     .00699027     45.27901
 
********************     FAR FIELD      ********************
 
ZENITH ANGLE : INITIAL,INCREMENT,NUMBER:  0, 10, 19
AZIMUTH ANGLE: INITIAL,INCREMENT,NUMBER:  0, 10, 37
 
 
********************    PATTERN DATA    ********************
ZENITH        AZIMUTH       VERTICAL      HORIZONTAL    TOTAL
 ANGLE         ANGLE        PATTERN (DB)  PATTERN (DB)  PATTERN (DB)
 0             0            -12.967113    -999          -12.967113
 10            0            -8.5751521    -999          -8.5751521
 20            0            -5.7020404    -999          -5.7020404
 30            0            -3.7151255    -999          -3.7151255
 40            0            -2.2933623    -999          -2.2933623
 50            0            -1.2682226    -999          -1.2682226
 60            0            -.54290972    -999          -.54290972
 70            0            -.05891796    -999          -.05891796
 80            0             .21891733    -999           .21891733
 90            0             .3095322     -999           .3095322
 100           0             .21891733    -999           .21891733
 110           0            -.05891796    -999          -.05891796
 120           0            -.54290972    -999          -.54290972
 130           0            -1.2682226    -999          -1.2682226
 140           0            -2.2933623    -999          -2.2933623
 150           0            -3.7151255    -999          -3.7151255
 160           0            -5.7020404    -999          -5.7020404
 170           0            -8.5751521    -999          -8.5751521
 180           0            -12.967113    -999          -12.967113
 0             10           -13.100084    -28.173708    -12.967113
 10            10           -8.6109295    -30.271135    -8.581398
 20            10           -5.6910047    -32.637171    -5.6822402
 30            10           -3.6747882    -34.723756    -3.6713785
 40            10           -2.2310798    -35.98058     -2.2292486
 50            10           -1.1882498    -36.743515    -1.1870414
 60            10           -.44876066    -37.92238     -.44798373
 70            10            .04577353    -40.392494     .04616612
 80            10            .33014948    -45.763653     .33025624
 90            10            .42298497    -999           .42298497
 100           10            .33014948    -45.763653     .33025624
 110           10            .04577353    -40.392494     .04616612
 120           10           -.44876066    -37.92238     -.44798373
 130           10           -1.1882498    -36.743515    -1.1870414
 140           10           -2.2310798    -35.98058     -2.2292486
 150           10           -3.6747882    -34.723756    -3.6713785
 160           10           -5.6910047    -32.637171    -5.6822402
 170           10           -8.6109295    -30.271135    -8.581398
 180           10           -13.100084    -28.173708    -12.967113
 0             20           -13.507397    -22.286079    -12.967113
 10            20           -8.7210475    -24.286319    -8.6021159
 20            20           -5.6631695    -26.561124    -5.6279949
 30            20           -3.562185     -28.664585    -3.5487921
 40            20           -2.0556284    -30.111628    -2.0488388
 50            20           -.96245277    -31.093903    -.95824135
 60            20           -.18279212    -32.407576    -.18019091
 70            20            .34152673    -34.941531     .34281324
 80            20            .64434515    -40.338945     .64469144
 90            20            .74343592    -999           .74343592
 100           20            .64434515    -40.338945     .64469144
 110           20            .34152673    -34.941531     .34281324
 120           20           -.18279212    -32.407576    -.18019091
 130           20           -.96245277    -31.093903    -.95824135
 140           20           -2.0556284    -30.111628    -2.0488388
 150           20           -3.562185     -28.664585    -3.5487921
 160           20           -5.6631695    -26.561124    -5.6279949
 170           20           -8.7210475    -24.286319    -8.6021159
 180           20           -13.507397    -22.286079    -12.967113
 0             30           -14.2165      -18.987713    -12.967113
 10            30           -8.913771     -20.830174    -8.6430405
 20            30           -5.6335842    -22.949915    -5.5537565
 30            30           -3.4008444    -25.035655    -3.3711402
 40            30           -1.7984956    -26.723903    -1.7845465
 50            30           -.62950935    -28.058313    -.62166581
 60            30            .21014752    -29.632215     .21464867
 70            30            .7786978     -32.307845     .78083096
 80            30            1.1088038    -37.769843     1.109366
 90            30            1.2171331    -296.48487     1.2171331
 100           30            1.1088038    -37.769843     1.109366
 110           30            .7786978     -32.307845     .78083096
 120           30            .21014752    -29.632215     .21464867
 130           30           -.62950935    -28.058313    -.62166581
 140           30           -1.7984956    -26.723903    -1.7845465
 150           30           -3.4008444    -25.035655    -3.3711402
 160           30           -5.6335842    -22.949915    -5.5537565
 170           30           -8.913771     -20.830174    -8.6430405
 180           30           -14.2165      -18.987713    -12.967113
 0             40           -15.282034    -16.805763    -12.967113
 10            40           -9.20258      -18.436054    -8.7131021
 20            40           -5.624987     -20.337392    -5.4806731
 30            40           -3.224979     -22.327279    -3.1719031
 40            40           -1.504403     -24.195617    -1.4810954
 50            40           -.24347686    -25.926793    -.23175851
 60            40            .6680911     -27.885901     .67414565
 70            40            1.289235     -30.818778     1.2919071
 80            40            1.6516233    -36.415242     1.6523011
 90            40            1.7708552    -294.10345     1.7708552
 100           40            1.6516233    -36.415242     1.6523011
 110           40            1.289235     -30.818778     1.2919071
 120           40            .6680911     -27.885901     .67414565
 130           40           -.24347686    -25.926793    -.23175851
 140           40           -1.504403     -24.195617    -1.4810954
 150           40           -3.224979     -22.327279    -3.1719031
 160           40           -5.624987     -20.337392    -5.4806731
 170           40           -9.20258      -18.436054    -8.7131021
 180           40           -15.282034    -16.805763    -12.967113
 0             50           -16.805763    -15.282034    -12.967113
 10            50           -9.6057517    -16.654165    -8.8236699
 20            50           -5.6649237    -18.280886    -5.4334181
 30            50           -3.0738773    -20.076186    -2.9881224
 40            50           -1.223103     -21.962142    -1.186623
 50            50            .13676193    -23.956892     .15364978
 60            50            1.1245269    -26.291652     1.1323933
 70            50            1.8008238    -29.552093     1.8040032
 80            50            2.1968471    -35.352907     2.1976106
 90            50            2.3274029    -292.44754     2.3274029
 100           50            2.1968471    -35.352907     2.1976106
 110           50            1.8008238    -29.552093     1.8040032
 120           50            1.1245269    -26.291652     1.1323933
 130           50            .13676193    -23.956892     .15364978
 140           50           -1.223103     -21.962142    -1.186623
 150           50           -3.0738773    -20.076186    -2.9881224
 160           50           -5.6649237    -18.280886    -5.4334181
 170           50           -9.6057517    -16.654165    -8.8236699
 180           50           -16.805763    -15.282034    -12.967113
 0             60           -18.987713    -14.2165      -12.967113
 10            60           -10.145792    -15.294653    -8.9877829
 20            60           -5.7827074    -16.604949    -5.4374195
 30            60           -2.9866974    -18.120988    -2.8555435
 40            60           -1.0023691    -19.845345    -.94604849
 50            60            .45600251    -21.847188     .48148199
 60            60            1.5180999    -24.328792     1.5293856
 70            60            2.2474703    -27.784518     2.2517792
 80            60            2.6755884    -33.738299     2.67658
 90            60            2.816906     -290.93868     2.816906
 100           60            2.6755884    -33.738299     2.67658
 110           60            2.2474703    -27.784518     2.2517792
 120           60            1.5180999    -24.328792     1.5293856
 130           60            .45600251    -21.847188     .48148199
 140           60           -1.0023691    -19.845345    -.94604849
 150           60           -2.9866974    -18.120988    -2.8555435
 160           60           -5.7827074    -16.604949    -5.4374195
 170           60           -10.145792    -15.294653    -8.9877829
 180           60           -18.987713    -14.2165      -12.967113
 0             70           -22.286079    -13.507397    -12.967113
 10            70           -10.848589    -14.267074    -9.2195208
 20            70           -6.0066849    -15.238252    -5.5170036
 30            70           -2.9985606    -16.427993    -2.8057353
 40            70           -.88331417    -17.878484    -.79741963
 50            70            .66793722    -19.689224     .70775489
 60            70            1.7981965    -22.068185     1.8159898
 70            70            2.575318     -25.488741     2.582095
 80            70            3.0319734    -31.440808     3.0335238
 90            70            3.1828061    -290.15333     3.1828061
 100           70            3.0319734    -31.440808     3.0335238
 110           70            2.575318     -25.488741     2.582095
 120           70            1.7981965    -22.068185     1.8159898
 130           70            .66793722    -19.689224     .70775489
 140           70           -.88331417    -17.878484    -.79741963
 150           70           -2.9985606    -16.427993    -2.8057353
 160           70           -6.0066849    -15.238252    -5.5170036
 170           70           -10.848589    -14.267074    -9.2195208
 180           70           -22.286079    -13.507397    -12.967113
 0             80           -28.173708    -13.100084    -12.967113
 10            80           -11.741754    -13.528552    -9.5336019
 20            80           -6.3619433    -14.157698    -5.6945071
 30            80           -3.1380231    -15.014648    -2.8648783
 40            80           -.89784774    -16.162036    -.77050253
 50            80            .73762364    -17.716068     .79918855
 60            80            1.9273042    -19.894792     1.9557587
 70            80            2.7448977    -23.17475      2.7559962
 80            80            3.2253099    -29.044375     3.2278844
 90            80            3.3839949    -289.4362      3.3839949
 100           80            3.2253099    -29.044375     3.2278844
 110           80            2.7448977    -23.17475      2.7559962
 120           80            1.9273042    -19.894792     1.9557587
 130           80            .73762364    -17.716068     .79918855
 140           80           -.89784774    -16.162036    -.77050253
 150           80           -3.1380231    -15.014648    -2.8648783
 160           80           -6.3619433    -14.157698    -5.6945071
 170           80           -11.741754    -13.528552    -9.5336019
 180           80           -28.173708    -13.100084    -12.967113
 0             90           -999          -12.967113    -12.967113
 10            90           -12.850501    -13.063132    -9.9452157
 20            90           -6.8682057    -13.364377    -5.9901448
 30            90           -3.4254512    -13.911912    -3.053564
 40            90           -1.0674399    -14.780768    -.88656578
 50            90            .64239499    -16.096992     .73344606
 60            90            1.8816536    -18.085595     1.9251928
 70            90            2.7315653    -21.227495     2.7489836
 80            90            3.2303954    -27.013545     3.2344992
 90            90            3.3950787    -289.27744     3.3950787
 100           90            3.2303954    -27.013545     3.2344992
 110           90            2.7315653    -21.227495     2.7489836
 120           90            1.8816536    -18.085595     1.9251928
 130           90            .64239499    -16.096992     .73344606
 140           90           -1.0674399    -14.780768    -.88656578
 150           90           -3.4254512    -13.911912    -3.053564
 160           90           -6.8682057    -13.364377    -5.9901448
 170           90           -12.850501    -13.063132    -9.9452157
 180           90           -999          -12.967113    -12.967113
 0             100          -28.173708    -13.100084    -12.967113
 10            100          -14.186481    -12.873066    -10.470011
 20            100          -7.5373146    -12.873092    -6.4223381
 30            100          -3.8716011    -13.150917    -3.3869863
 40            100          -1.4022765    -13.788095    -1.1585192
 50            100           .37231354    -14.914244     .49901398
 60            100           1.651392     -16.755693     1.7136164
 70            100           2.5254815    -19.79328      2.55087
 80            100           3.0373824    -25.517186     3.0434362
 90            100           3.2062046    -289.41536     3.2062046
 100           100           3.0373824    -25.517186     3.0434362
 110           100           2.5254815    -19.79328      2.55087
 120           100           1.651392     -16.755693     1.7136164
 130           100           .37231354    -14.914244     .49901398
 140           100          -1.4022765    -13.788095    -1.1585192
 150           100          -3.8716011    -13.150917    -3.3869863
 160           100          -7.5373146    -12.873092    -6.4223381
 170           100          -14.186481    -12.873066    -10.470011
 180           100          -28.173708    -13.100084    -12.967113
 0             110          -22.286079    -13.507397    -12.967113
 10            110          -15.718338    -12.976167    -11.124026
 20            110          -8.3694007    -12.709504    -7.0081579
 30            110          -4.4756841    -12.763073    -3.8749755
 40            110          -1.9000614    -13.218904    -1.5907866
 50            110          -.06905714    -14.204256     .0953862
 60            110           1.2410833    -15.941767     1.3233791
 70            110           2.1319388    -18.90842      2.1659832
 80            110           2.6520084    -24.591171     2.6601942
 90            110           2.82326      -289.60113     2.82326
 100           110           2.6520084    -24.591171     2.6601942
 110           110           2.1319388    -18.90842      2.1659832
 120           110           1.2410833    -15.941767     1.3233791
 130           110          -.06905714    -14.204256     .0953862
 140           110          -1.9000614    -13.218904    -1.5907866
 150           110          -4.4756841    -12.763073    -3.8749755
 160           110          -8.3694007    -12.709504    -7.0081579
 170           110          -15.718338    -12.976167    -11.124026
 180           110          -22.286079    -13.507397    -12.967113
 0             120          -18.987713    -14.2165      -12.967113
 10            120          -17.305502    -13.407851    -11.923056
 20            120          -9.3467406    -12.912895    -7.7633238
 30            120          -5.2223205    -12.786882    -4.5211882
 40            120          -2.5439555    -13.106829    -2.1782888
 50            120          -.66310351    -13.993197    -.4659165
 60            120           .67095168    -15.661788     .77083809
 70            120           1.5724233    -18.583689     1.6141185
 80            120           2.0965596    -24.241417     2.1066401
 90            120           2.2688046    -290.4642      2.2688046
 100           120           2.0965596    -24.241417     2.1066401
 110           120           1.5724233    -18.583689     1.6141185
 120           120           .67095168    -15.661788     .77083809
 130           120          -.66310351    -13.993197    -.4659165
 140           120          -2.5439555    -13.106829    -2.1782888
 150           120          -5.2223205    -12.786882    -4.5211882
 160           120          -9.3467406    -12.912895    -7.7633238
 170           120          -17.305502    -13.407851    -11.923056
 180           120          -18.987713    -14.2165      -12.967113
 0             130          -16.805763    -15.282034    -12.967113
 10            130          -18.614752    -14.229247    -12.880174
 20            130          -10.425053    -13.545341    -8.7004946
 30            130          -6.0771876    -13.280301    -5.3202238
 40            130          -3.2995149    -13.502212    -2.9036291
 50            130          -1.3737538    -14.322275    -1.158899
 60            130          -.02109066    -15.948105     .08845473
 70            130           .88641807    -18.844219     .93238235
 80            130           1.4115572    -24.488384     1.4227061
 90            130           1.5837214    -291.59244     1.5837214
 100           130           1.4115572    -24.488384     1.4227061
 110           130           .88641807    -18.844219     .93238235
 120           130          -.02109066    -15.948105     .08845473
 130           130          -1.3737538    -14.322275    -1.158899
 140           130          -3.2995149    -13.502212    -2.9036291
 150           130          -6.0771876    -13.280301    -5.3202238
 160           130          -10.425053    -13.545341    -8.7004946
 170           130          -18.614752    -14.229247    -12.880174
 180           130          -16.805763    -15.282034    -12.967113
 0             140          -15.282034    -16.805763    -12.967113
 10            140          -19.226994    -15.547205    -13.998192
 20            140          -11.525202    -14.712788    -9.8225842
 30            140          -6.9822628    -14.343876    -6.2502659
 40            140          -4.1112855    -14.497752    -3.7311049
 50            140          -2.144826     -15.27573     -1.9386007
 60            140          -.77724968    -16.877248    -.67193039
 70            140           .13332337    -19.760494     .17760124
 80            140           .65753101    -25.398734     .66828624
 90            140           .82894334    -293.655       .82894334
 100           140           .65753101    -25.398734     .66828624
 110           140           .13332337    -19.760494     .17760124
 120           140          -.77724968    -16.877248    -.67193039
 130           140          -2.144826     -15.27573     -1.9386007
 140           140          -4.1112855    -14.497752    -3.7311049
 150           140          -6.9822628    -14.343876    -6.2502659
 160           140          -11.525202    -14.712788    -9.8225842
 170           140          -19.226994    -15.547205    -13.998192
 180           140          -15.282034    -16.805763    -12.967113
 0             150          -14.2165      -18.987713    -12.967113
 10            150          -19.086242    -17.565578    -15.249391
 20            150          -12.535029    -16.617231    -11.102873
 30            150          -7.8537747    -16.174146    -7.2573127
 40            150          -4.9012598    -16.282952    -4.5962761
 50            150          -2.899082     -17.035903    -2.7346989
 60            150          -1.5193435    -18.625232    -1.4355904
 70            150          -.60732748    -21.503647    -.57213971
 80            150          -.08492685    -27.140535    -.0763802
 90            150           .08545492    -295.69348     .08545492
 100           150          -.08492685    -27.140535    -.0763802
 110           150          -.60732748    -21.503647    -.57213971
 120           150          -1.5193435    -18.625232    -1.4355904
 130           150          -2.899082     -17.035903    -2.7346989
 140           150          -4.9012598    -16.282952    -4.5962761
 150           150          -7.8537747    -16.174146    -7.2573127
 160           150          -12.535029    -16.617231    -11.102873
 170           150          -19.086242    -17.565578    -15.249391
 180           150          -14.2165      -18.987713    -12.967113
 0             160          -13.507397    -22.286079    -12.967113
 10            160          -18.595568    -20.745307    -16.52846
 20            160          -13.334226    -19.717498    -12.435278
 30            160          -8.588376     -19.225159    -8.2286311
 40            160          -5.5733924    -19.306082    -5.3933064
 50            160          -3.5427134    -20.045354    -3.4466172
 60            160          -2.1535011    -21.629637    -2.1047783
 70            160          -1.2407766    -24.507424    -1.2203546
 80            160          -.72021173    -30.145126    -.71525672
 90            160          -.55080596    -299.10086    -.55080596
 100           160          -.72021173    -30.145126    -.71525672
 110           160          -1.2407766    -24.507424    -1.2203546
 120           160          -2.1535011    -21.629637    -2.1047783
 130           160          -3.5427134    -20.045354    -3.4466172
 140           160          -5.5733924    -19.306082    -5.3933064
 150           160          -8.588376     -19.225159    -8.2286311
 160           160          -13.334226    -19.717498    -12.435278
 170           160          -18.595568    -20.745307    -16.52846
 180           160          -13.507397    -22.286079    -12.967113
 0             170          -13.100084    -28.173708    -12.967113
 10            170          -18.165345    -26.561064    -17.57848
 20            170          -13.835722    -25.486412    -13.548463
 30            170          -9.0817887    -24.966059    -8.9711735
 40            170          -6.0286457    -25.032007    -5.9743543
 50            170          -3.9794694    -25.764777    -3.9507736
 60            170          -2.584079     -27.347518    -2.5696007
 70            170          -1.6709804    -30.226079    -1.6649273
 80            170          -1.1517149    -35.864997    -1.150248
 90            170          -.98298874    -999          -.98298874
 100           170          -1.1517149    -35.864997    -1.150248
 110           170          -1.6709804    -30.226079    -1.6649273
 120           170          -2.584079     -27.347518    -2.5696007
 130           170          -3.9794694    -25.764777    -3.9507736
 140           170          -6.0286457    -25.032007    -5.9743543
 150           170          -9.0817887    -24.966059    -8.9711735
 160           170          -13.835722    -25.486412    -13.548463
 170           170          -18.165345    -26.561064    -17.57848
 180           170          -13.100084    -28.173708    -12.967113
 0             180          -12.967113    -999          -12.967113
 10            180          -18.003295    -999          -18.003295
 20            180          -14.004602    -999          -14.004602
 30            180          -9.2558978    -999          -9.2558978
 40            180          -6.1901498    -999          -6.1901498
 50            180          -4.134566     -999          -4.134566
 60            180          -2.7370142    -999          -2.7370142
 70            180          -1.8237896    -999          -1.8237896
 80            180          -1.3049873    -999          -1.3049873
 90            180          -1.136503     -999          -1.136503
 100           180          -1.3049873    -999          -1.3049873
 110           180          -1.8237896    -999          -1.8237896
 120           180          -2.7370142    -999          -2.7370142
 130           180          -4.134566     -999          -4.134566
 140           180          -6.1901498    -999          -6.1901498
 150           180          -9.2558978    -999          -9.2558978
 160           180          -14.004602    -999          -14.004602
 170           180          -18.003295    -999          -18.003295
 180           180          -12.967113    -999          -12.967113
 0             190          -13.100084    -28.173708    -12.967113
 10            190          -18.165345    -26.561064    -17.57848
 20            190          -13.835722    -25.486412    -13.548463
 30            190          -9.0817887    -24.966059    -8.9711735
 40            190          -6.0286457    -25.032007    -5.9743543
 50            190          -3.9794694    -25.764777    -3.9507736
 60            190          -2.584079     -27.347518    -2.5696007
 70            190          -1.6709804    -30.226079    -1.6649273
 80            190          -1.1517149    -35.864997    -1.150248
 90            190          -.98298874    -999          -.98298874
 100           190          -1.1517149    -35.864997    -1.150248
 110           190          -1.6709804    -30.226079    -1.6649273
 120           190          -2.584079     -27.347518    -2.5696007
 130           190          -3.9794694    -25.764777    -3.9507736
 140           190          -6.0286457    -25.032007    -5.9743543
 150           190          -9.0817887    -24.966059    -8.9711735
 160           190          -13.835722    -25.486412    -13.548463
 170           190          -18.165345    -26.561064    -17.57848
 180           190          -13.100084    -28.173708    -12.967113
 0             200          -13.507397    -22.286079    -12.967113
 10            200          -18.595568    -20.745307    -16.52846
 20            200          -13.334226    -19.717498    -12.435278
 30            200          -8.588376     -19.225159    -8.2286311
 40            200          -5.5733924    -19.306082    -5.3933064
 50            200          -3.5427134    -20.045354    -3.4466172
 60            200          -2.1535011    -21.629637    -2.1047783
 70            200          -1.2407766    -24.507424    -1.2203546
 80            200          -.72021173    -30.145126    -.71525672
 90            200          -.55080596    -299.19158    -.55080596
 100           200          -.72021173    -30.145126    -.71525672
 110           200          -1.2407766    -24.507424    -1.2203546
 120           200          -2.1535011    -21.629637    -2.1047783
 130           200          -3.5427134    -20.045354    -3.4466172
 140           200          -5.5733924    -19.306082    -5.3933064
 150           200          -8.588376     -19.225159    -8.2286311
 160           200          -13.334226    -19.717498    -12.435278
 170           200          -18.595568    -20.745307    -16.52846
 180           200          -13.507397    -22.286079    -12.967113
 0             210          -14.2165      -18.987713    -12.967113
 10            210          -19.086242    -17.565578    -15.249391
 20            210          -12.535029    -16.617231    -11.102873
 30            210          -7.8537747    -16.174146    -7.2573127
 40            210          -4.9012598    -16.282952    -4.5962761
 50            210          -2.899082     -17.035903    -2.7346989
 60            210          -1.5193435    -18.625232    -1.4355904
 70            210          -.60732748    -21.503647    -.57213971
 80            210          -.08492685    -27.140535    -.0763802
 90            210           .08545492    -295.82139     .08545492
 100           210          -.08492685    -27.140535    -.0763802
 110           210          -.60732748    -21.503647    -.57213971
 120           210          -1.5193435    -18.625232    -1.4355904
 130           210          -2.899082     -17.035903    -2.7346989
 140           210          -4.9012598    -16.282952    -4.5962761
 150           210          -7.8537747    -16.174146    -7.2573127
 160           210          -12.535029    -16.617231    -11.102873
 170           210          -19.086242    -17.565578    -15.249391
 180           210          -14.2165      -18.987713    -12.967113
 0             220          -15.282034    -16.805763    -12.967113
 10            220          -19.226994    -15.547205    -13.998192
 20            220          -11.525202    -14.712788    -9.8225842
 30            220          -6.9822628    -14.343876    -6.2502659
 40            220          -4.1112855    -14.497752    -3.7311049
 50            220          -2.144826     -15.27573     -1.9386007
 60            220          -.77724968    -16.877248    -.67193039
 70            220           .13332337    -19.760494     .17760124
 80            220           .65753101    -25.398734     .66828624
 90            220           .82894334    -293.47125     .82894334
 100           220           .65753101    -25.398734     .66828624
 110           220           .13332337    -19.760494     .17760124
 120           220          -.77724968    -16.877248    -.67193039
 130           220          -2.144826     -15.27573     -1.9386007
 140           220          -4.1112855    -14.497752    -3.7311049
 150           220          -6.9822628    -14.343876    -6.2502659
 160           220          -11.525202    -14.712788    -9.8225842
 170           220          -19.226994    -15.547205    -13.998192
 180           220          -15.282034    -16.805763    -12.967113
 0             230          -16.805763    -15.282034    -12.967113
 10            230          -18.614752    -14.229247    -12.880174
 20            230          -10.425053    -13.545341    -8.7004946
 30            230          -6.0771876    -13.280301    -5.3202238
 40            230          -3.2995149    -13.502212    -2.9036291
 50            230          -1.3737538    -14.322275    -1.158899
 60            230          -.02109066    -15.948105     .08845473
 70            230           .88641807    -18.844219     .93238235
 80            230           1.4115572    -24.488384     1.4227061
 90            230           1.5837214    -291.48094     1.5837214
 100           230           1.4115572    -24.488384     1.4227061
 110           230           .88641807    -18.844219     .93238235
 120           230          -.02109066    -15.948105     .08845473
 130           230          -1.3737538    -14.322275    -1.158899
 140           230          -3.2995149    -13.502212    -2.9036291
 150           230          -6.0771876    -13.280301    -5.3202238
 160           230          -10.425053    -13.545341    -8.7004946
 170           230          -18.614752    -14.229247    -12.880174
 180           230          -16.805763    -15.282034    -12.967113
 0             240          -18.987713    -14.2165      -12.967113
 10            240          -17.305502    -13.407851    -11.923056
 20            240          -9.3467406    -12.912895    -7.7633238
 30            240          -5.2223205    -12.786882    -4.5211882
 40            240          -2.5439555    -13.106829    -2.1782888
 50            240          -.66310351    -13.993197    -.4659165
 60            240           .67095168    -15.661788     .77083809
 70            240           1.5724233    -18.583689     1.6141185
 80            240           2.0965596    -24.241417     2.1066401
 90            240           2.2688046    -290.41741     2.2688046
 100           240           2.0965596    -24.241417     2.1066401
 110           240           1.5724233    -18.583689     1.6141185
 120           240           .67095168    -15.661788     .77083809
 130           240          -.66310351    -13.993197    -.4659165
 140           240          -2.5439555    -13.106829    -2.1782888
 150           240          -5.2223205    -12.786882    -4.5211882
 160           240          -9.3467406    -12.912895    -7.7633238
 170           240          -17.305502    -13.407851    -11.923056
 180           240          -18.987713    -14.2165      -12.967113
 0             250          -22.286079    -13.507397    -12.967113
 10            250          -15.718338    -12.976167    -11.124026
 20            250          -8.3694007    -12.709504    -7.0081579
 30            250          -4.4756841    -12.763073    -3.8749755
 40            250          -1.9000614    -13.218904    -1.5907866
 50            250          -.06905714    -14.204256     .0953862
 60            250           1.2410833    -15.941767     1.3233791
 70            250           2.1319388    -18.90842      2.1659832
 80            250           2.6520084    -24.591171     2.6601942
 90            250           2.82326      -289.75803     2.82326
 100           250           2.6520084    -24.591171     2.6601942
 110           250           2.1319388    -18.90842      2.1659832
 120           250           1.2410833    -15.941767     1.3233791
 130           250          -.06905714    -14.204256     .0953862
 140           250          -1.9000614    -13.218904    -1.5907866
 150           250          -4.4756841    -12.763073    -3.8749755
 160           250          -8.3694007    -12.709504    -7.0081579
 170           250          -15.718338    -12.976167    -11.124026
 180           250          -22.286079    -13.507397    -12.967113
 0             260          -28.173708    -13.100084    -12.967113
 10            260          -14.186481    -12.873066    -10.470011
 20            260          -7.5373146    -12.873092    -6.4223381
 30            260          -3.8716011    -13.150917    -3.3869863
 40            260          -1.4022765    -13.788095    -1.1585192
 50            260           .37231354    -14.914244     .49901398
 60            260           1.651392     -16.755693     1.7136164
 70            260           2.5254815    -19.79328      2.55087
 80            260           3.0373824    -25.517186     3.0434362
 90            260           3.2062046    -289.51427     3.2062046
 100           260           3.0373824    -25.517186     3.0434362
 110           260           2.5254815    -19.79328      2.55087
 120           260           1.651392     -16.755693     1.7136164
 130           260           .37231354    -14.914244     .49901398
 140           260          -1.4022765    -13.788095    -1.1585192
 150           260          -3.8716011    -13.150917    -3.3869863
 160           260          -7.5373146    -12.873092    -6.4223381
 170           260          -14.186481    -12.873066    -10.470011
 180           260          -28.173708    -13.100084    -12.967113
 0             270          -999          -12.967113    -12.967113
 10            270          -12.850501    -13.063132    -9.9452157
 20            270          -6.8682057    -13.364377    -5.9901448
 30            270          -3.4254512    -13.911912    -3.053564
 40            270          -1.0674399    -14.780768    -.88656578
 50            270           .64239499    -16.096992     .73344606
 60            270           1.8816536    -18.085595     1.9251928
 70            270           2.7315653    -21.227495     2.7489836
 80            270           3.2303954    -27.013545     3.2344992
 90            270           3.3950787    -289.40458     3.3950787
 100           270           3.2303954    -27.013545     3.2344992
 110           270           2.7315653    -21.227495     2.7489836
 120           270           1.8816536    -18.085595     1.9251928
 130           270           .64239499    -16.096992     .73344606
 140           270          -1.0674399    -14.780768    -.88656578
 150           270          -3.4254512    -13.911912    -3.053564
 160           270          -6.8682057    -13.364377    -5.9901448
 170           270          -12.850501    -13.063132    -9.9452157
 180           270          -999          -12.967113    -12.967113
 0             280          -28.173708    -13.100084    -12.967113
 10            280          -11.741754    -13.528552    -9.5336019
 20            280          -6.3619433    -14.157698    -5.6945071
 30            280          -3.1380231    -15.014648    -2.8648783
 40            280          -.89784774    -16.162036    -.77050253
 50            280           .73762364    -17.716068     .79918855
 60            280           1.9273042    -19.894792     1.9557587
 70            280           2.7448977    -23.17475      2.7559962
 80            280           3.2253099    -29.044375     3.2278844
 90            280           3.3839949    -289.48508     3.3839949
 100           280           3.2253099    -29.044375     3.2278844
 110           280           2.7448977    -23.17475      2.7559962
 120           280           1.9273042    -19.894792     1.9557587
 130           280           .73762364    -17.716068     .79918855
 140           280          -.89784774    -16.162036    -.77050253
 150           280          -3.1380231    -15.014648    -2.8648783
 160           280          -6.3619433    -14.157698    -5.6945071
 170           280          -11.741754    -13.528552    -9.5336019
 180           280          -28.173708    -13.100084    -12.967113
 0             290          -22.286079    -13.507397    -12.967113
 10            290          -10.848589    -14.267074    -9.2195208
 20            290          -6.0066849    -15.238252    -5.5170036
 30            290          -2.9985606    -16.427993    -2.8057353
 40            290          -.88331417    -17.878484    -.79741963
 50            290           .66793722    -19.689224     .70775489
 60            290           1.7981965    -22.068185     1.8159898
 70            290           2.575318     -25.488741     2.582095
 80            290           3.0319734    -31.440808     3.0335238
 90            290           3.1828061    -290.1824      3.1828061
 100           290           3.0319734    -31.440808     3.0335238
 110           290           2.575318     -25.488741     2.582095
 120           290           1.7981965    -22.068185     1.8159898
 130           290           .66793722    -19.689224     .70775489
 140           290          -.88331417    -17.878484    -.79741963
 150           290          -2.9985606    -16.427993    -2.8057353
 160           290          -6.0066849    -15.238252    -5.5170036
 170           290          -10.848589    -14.267074    -9.2195208
 180           290          -22.286079    -13.507397    -12.967113
 0             300          -18.987713    -14.2165      -12.967113
 10            300          -10.145792    -15.294653    -8.9877829
 20            300          -5.7827074    -16.604949    -5.4374195
 30            300          -2.9866974    -18.120988    -2.8555435
 40            300          -1.0023691    -19.845345    -.94604849
 50            300           .45600251    -21.847188     .48148199
 60            300           1.5180999    -24.328792     1.5293856
 70            300           2.2474703    -27.784518     2.2517792
 80            300           2.6755884    -33.738299     2.67658
 90            300           2.816906     -290.93868     2.816906
 100           300           2.6755884    -33.738299     2.67658
 110           300           2.2474703    -27.784518     2.2517792
 120           300           1.5180999    -24.328792     1.5293856
 130           300           .45600251    -21.847188     .48148199
 140           300          -1.0023691    -19.845345    -.94604849
 150           300          -2.9866974    -18.120988    -2.8555435
 160           300          -5.7827074    -16.604949    -5.4374195
 170           300          -10.145792    -15.294653    -8.9877829
 180           300          -18.987713    -14.2165      -12.967113
 0             310          -16.805763    -15.282034    -12.967113
 10            310          -9.6057517    -16.654165    -8.8236699
 20            310          -5.6649237    -18.280886    -5.4334181
 30            310          -3.0738773    -20.076186    -2.9881224
 40            310          -1.223103     -21.962142    -1.186623
 50            310           .13676193    -23.956892     .15364978
 60            310           1.1245269    -26.291652     1.1323933
 70            310           1.8008238    -29.552093     1.8040032
 80            310           2.1968471    -35.352907     2.1976106
 90            310           2.3274029    -292.53092     2.3274029
 100           310           2.1968471    -35.352907     2.1976106
 110           310           1.8008238    -29.552093     1.8040032
 120           310           1.1245269    -26.291652     1.1323933
 130           310           .13676193    -23.956892     .15364978
 140           310          -1.223103     -21.962142    -1.186623
 150           310          -3.0738773    -20.076186    -2.9881224
 160           310          -5.6649237    -18.280886    -5.4334181
 170           310          -9.6057517    -16.654165    -8.8236699
 180           310          -16.805763    -15.282034    -12.967113
 0             320          -15.282034    -16.805763    -12.967113
 10            320          -9.20258      -18.436054    -8.7131021
 20            320          -5.624987     -20.337392    -5.4806731
 30            320          -3.224979     -22.327279    -3.1719031
 40            320          -1.504403     -24.195617    -1.4810954
 50            320          -.24347686    -25.926793    -.23175851
 60            320           .6680911     -27.885901     .67414565
 70            320           1.289235     -30.818778     1.2919071
 80            320           1.6516233    -36.415242     1.6523011
 90            320           1.7708552    -294.16727     1.7708552
 100           320           1.6516233    -36.415242     1.6523011
 110           320           1.289235     -30.818778     1.2919071
 120           320           .6680911     -27.885901     .67414565
 130           320          -.24347686    -25.926793    -.23175851
 140           320          -1.504403     -24.195617    -1.4810954
 150           320          -3.224979     -22.327279    -3.1719031
 160           320          -5.624987     -20.337392    -5.4806731
 170           320          -9.20258      -18.436054    -8.7131021
 180           320          -15.282034    -16.805763    -12.967113
 0             330          -14.2165      -18.987713    -12.967113
 10            330          -8.913771     -20.830174    -8.6430405
 20            330          -5.6335842    -22.949915    -5.5537565
 30            330          -3.4008444    -25.035655    -3.3711402
 40            330          -1.7984956    -26.723903    -1.7845465
 50            330          -.62950935    -28.058313    -.62166581
 60            330           .21014752    -29.632215     .21464867
 70            330           .7786978     -32.307845     .78083096
 80            330           1.1088038    -37.769843     1.109366
 90            330           1.2171331    -296.45296     1.2171331
 100           330           1.1088038    -37.769843     1.109366
 110           330           .7786978     -32.307845     .78083096
 120           330           .21014752    -29.632215     .21464867
 130           330          -.62950935    -28.058313    -.62166581
 140           330          -1.7984956    -26.723903    -1.7845465
 150           330          -3.4008444    -25.035655    -3.3711402
 160           330          -5.6335842    -22.949915    -5.5537565
 170           330          -8.913771     -20.830174    -8.6430405
 180           330          -14.2165      -18.987713    -12.967113
 0             340          -13.507397    -22.286079    -12.967113
 10            340          -8.7210475    -24.286319    -8.6021159
 20            340          -5.6631695    -26.561124    -5.6279949
 30            340          -3.562185     -28.664585    -3.5487921
 40            340          -2.0556284    -30.111628    -2.0488388
 50            340          -.96245277    -31.093903    -.95824135
 60            340          -.18279212    -32.407576    -.18019091
 70            340           .34152673    -34.941531     .34281324
 80            340           .64434515    -40.338945     .64469144
 90            340           .74343592    -999           .74343592
 100           340           .64434515    -40.338945     .64469144
 110           340           .34152673    -34.941531     .34281324
 120           340          -.18279212    -32.407576    -.18019091
 130           340          -.96245277    -31.093903    -.95824135
 140           340          -2.0556284    -30.111628    -2.0488388
 150           340          -3.562185     -28.664585    -3.5487921
 160           340          -5.6631695    -26.561124    -5.6279949
 170           340          -8.7210475    -24.286319    -8.6021159
 180           340          -13.507397    -22.286079    -12.967113
 0             350          -13.100084    -28.173708    -12.967113
 10            350          -8.6109295    -30.271135    -8.581398
 20            350          -5.6910047    -32.637171    -5.6822402
 30            350          -3.6747882    -34.723756    -3.6713785
 40            350          -2.2310798    -35.98058     -2.2292486
 50            350          -1.1882498    -36.743515    -1.1870414
 60            350          -.44876066    -37.92238     -.44798373
 70            350           .04577353    -40.392494     .04616612
 80            350           .33014948    -45.763653     .33025624
 90            350           .42298497    -999           .42298497
 100           350           .33014948    -45.763653     .33025624
 110           350           .04577353    -40.392494     .04616612
 120           350          -.44876066    -37.92238     -.44798373
 130           350          -1.1882498    -36.743515    -1.1870414
 140           350          -2.2310798    -35.98058     -2.2292486
 150           350          -3.6747882    -34.723756    -3.6713785
 160           350          -5.6910047    -32.637171    -5.6822402
 170           350          -8.6109295    -30.271135    -8.581398
 180           350          -13.100084    -28.173708    -12.967113
 0             360          -12.967113    -999          -12.967113
 10            360          -8.5751521    -999          -8.5751521
 20            360          -5.7020404    -999          -5.7020404
 30            360          -3.7151255    -999          -3.7151255
 40            360          -2.2933623    -999          -2.2933623
 50            360          -1.2682226    -999          -1.2682226
 60            360          -.54290972    -999          -.54290972
 70            360          -.05891796    -999          -.05891796
 80            360           .21891733    -999           .21891733
 90            360           .3095322     -999           .3095322
 100           360           .21891733    -999           .21891733
 110           360          -.05891796    -999          -.05891796
 120           360          -.54290972    -999          -.54290972
 130           360          -1.2682226    -999          -1.2682226
 140           360          -2.2933623    -999          -2.2933623
 150           360          -3.7151255    -999          -3.7151255
 160           360          -5.7020404    -999          -5.7020404
 170           360          -8.5751521    -999          -8.5751521
 180           360          -12.967113    -999          -12.967113
