                   ****************************************
                     MINI-NUMERICAL ELECTROMAGNETICS CODE
                                   MININEC
                   ****************************************

FREQUENCY (MHZ): 29.98
    WAVE LENGTH =  10  METERS

ENVIRONMENT (+1 FOR FREE SPACE, -1 FOR GROUND PLANE): +1

NO. OF WIRES: 1

ARC  NO. 1
            COORDINATES                                 END         NO. OF
   X             Y             Z          RADIUS     CONNECTION     SEGMENTS
 1.591549      0             0                          1
 1.591549      0             0             .0674        1             22

                  **** ANTENNA GEOMETRY ****

ARC  NO.  1  COORDINATES                                CONNECTION PULSE
X             Y             Z             RADIUS        END1 END2  NO.
 1.52708       0             .448391       .0674         1    1   1
 1.338897      0             .860457       .0674         1    1   2
 1.042243      0             1.202813      .0674         1    1   3
 .661154       0             1.447724      .0674         1    1   4
 .226501       0             1.57535       .0674         1    1   5
-.226501       0             1.57535       .0674         1    1   6
-.661154       0             1.447724      .0674         1    1   7
-1.042243      0             1.202813      .0674         1    1   8
-1.338897      0             .860457       .0674         1    1   9
-1.52708       0             .448391       .0674         1    1  10
-1.591549      0             0             .0674         1    1  11
-1.52708       0            -.448391       .0674         1    1  12
-1.338897      0            -.860457       .0674         1    1  13
-1.042243      0            -1.202813      .0674         1    1  14
-.661154       0            -1.447724      .0674         1    1  15
-.226501       0            -1.57535       .0674         1    1  16
 .226501       0            -1.57535       .0674         1    1  17
 .661154       0            -1.447724      .0674         1    1  18
 1.042243      0            -1.202813      .0674         1    1  19
 1.338897      0            -.860457       .0674         1    1  20
 1.52708       0            -.448391       .0674         1    1  21
 1.591549      0             0             .0674         1    1  22

NO. OF SOURCES :  1
PULSE NO., VOLTAGE MAGNITUDE, PHASE (DEGREES): 22 , 1 , 0
NUMBER OF LOADS 0

********************    SOURCE DATA     ********************
PULSE 22      VOLTAGE = ( 1 , 0 J)
              CURRENT = ( 4.918742E-03 ,  4.966882E-03 J)
              IMPEDANCE = ( 100.662  , -101.6472 J)
              POWER =  2.459371E-03  WATTS

********************    CURRENT DATA    ********************

WIRE NO.  1 :
PULSE         REAL          IMAGINARY     MAGNITUDE     PHASE
 NO.          (AMPS)        (AMPS)        (AMPS)        (DEGREES)
J              4.918742E-03  4.966882E-03  6.990275E-03  45.27901 
 1             4.721598E-03  3.410699E-03  5.824633E-03  35.84288 
 2             4.146555E-03  2.337822E-03  4.760182E-03  29.41425 
 3             3.241312E-03  1.258549E-03  3.477075E-03  21.22039 
 4             2.080640E-03  2.012843E-04  2.090353E-03  5.525687 
 5             7.598446E-04 -8.009970E-04  1.104065E-03 -46.51029 
 6            -6.133564E-04 -1.712049E-03  1.818603E-03 -109.7105 
 7            -1.927774E-03 -2.499681E-03  3.156694E-03 -127.6397 
 8            -3.077714E-03 -3.137807E-03  4.395242E-03 -134.4461 
 9            -3.971274E-03 -3.606849E-03  5.364735E-03 -137.7532 
 10           -4.537396E-03 -3.893421E-03  5.978854E-03 -139.368  
 11           -4.731214E-03 -3.989786E-03  6.188924E-03 -139.8594 
 12           -4.537396E-03 -3.893421E-03  5.978854E-03 -139.368  
 13           -3.971274E-03 -3.606849E-03  5.364735E-03 -137.7532 
 14           -3.077714E-03 -3.137807E-03  4.395242E-03 -134.4461 
 15           -1.927774E-03 -2.499681E-03  3.156694E-03 -127.6397 
 16           -6.133564E-04 -1.712049E-03  1.818603E-03 -109.7105 
 17            7.598446E-04 -8.009970E-04  1.104065E-03 -46.51029 
 18            2.080640E-03  2.012843E-04  2.090353E-03  5.525687 
 19            3.241312E-03  1.258549E-03  3.477075E-03  21.22039 
 20            4.146555E-03  2.337822E-03  4.760182E-03  29.41425 
 21            4.721598E-03  3.410699E-03  5.824633E-03  35.84288 
 22            4.918742E-03  4.966882E-03  6.990275E-03  45.27901 
J              4.918742E-03  4.966882E-03  6.990275E-03  45.27901 

********************     FAR FIELD      ********************

ZENITH ANGLE : INITIAL,INCREMENT,NUMBER: 0 , 10 , 10
AZIMUTH ANGLE: INITIAL,INCREMENT,NUMBER: 0 , 10 , 37

********************    PATTERN DATA    ********************
ZENITH        AZIMUTH       VERTICAL      HORIZONTAL    TOTAL
 ANGLE         ANGLE        PATTERN (DB)  PATTERN (DB)  PATTERN (DB)
 0             0            -12.96711     -999          -12.96711
 10            0            -8.575152     -999          -8.575152
 20            0            -5.70204      -999          -5.70204 
 30            0            -3.715126     -999          -3.715126
 40            0            -2.293362     -999          -2.293362
 50            0            -1.268223     -999          -1.268223
 60            0            -.54291       -999          -.54291  
 70            0            -.058918      -999          -.058918 
 80            0             .218917      -999           .218917 
 90            0             .309532      -999           .309532 
 0             10           -13.10008     -28.17371     -12.96711
 10            10           -8.61093      -30.27113     -8.581398
 20            10           -5.691005     -32.63717     -5.68224 
 30            10           -3.674788     -34.72376     -3.671378
 40            10           -2.23108      -35.98058     -2.229249
 50            10           -1.18825      -36.74352     -1.187041
 60            10           -.448761      -37.92238     -.447984 
 70            10            .045773      -40.39249      .046166 
 80            10            .330149      -45.76365      .330256 
 90            10            .422985      -999           .422985 
 0             20           -13.5074      -22.28608     -12.96711
 10            20           -8.721047     -24.28632     -8.602116
 20            20           -5.663169     -26.56112     -5.627995
 30            20           -3.562185     -28.66459     -3.548792
 40            20           -2.055628     -30.11163     -2.048839
 50            20           -.962453      -31.0939      -.958241 
 60            20           -.182792      -32.40758     -.180191 
 70            20            .341527      -34.94153      .342813 
 80            20            .644345      -40.33894      .644691 
 90            20            .743436      -298.4187      .743436 
 0             30           -14.2165      -18.98771     -12.96711
 10            30           -8.913771     -20.83017     -8.643041
 20            30           -5.633584     -22.94991     -5.553756
 30            30           -3.400844     -25.03566     -3.37114 
 40            30           -1.798496     -26.7239      -1.784546
 50            30           -.629509      -28.05831     -.621666 
 60            30            .210148      -29.63221      .214649 
 70            30            .778698      -32.30785      .780831 
 80            30            1.108804     -37.76984      1.109366
 90            30            1.217133     -294.9856      1.217133
 0             40           -15.28203     -16.80576     -12.96711
 10            40           -9.20258      -18.43605     -8.713102
 20            40           -5.624987     -20.33739     -5.480673
 30            40           -3.224979     -22.32728     -3.171903
 40            40           -1.504403     -24.19562     -1.481095
 50            40           -.243477      -25.92679     -.231759 
 60            40            .668091      -27.8859       .674146 
 70            40            1.289235     -30.81878      1.291907
 80            40            1.651623     -36.41524      1.652301
 90            40            1.770855     -292.5677      1.770855
 0             50           -16.80576     -15.28203     -12.96711
 10            50           -9.605752     -16.65417     -8.82367 
 20            50           -5.664924     -18.28089     -5.433418
 30            50           -3.073877     -20.07619     -2.988122
 40            50           -1.223103     -21.96214     -1.186623
 50            50            .136762      -23.95689      .15365  
 60            50            1.124527     -26.29165      1.132393
 70            50            1.800824     -29.55209      1.804003
 80            50            2.196847     -35.35291      2.197611
 90            50            2.327403     -290.8497      2.327403
 0             60           -18.98771     -14.2165      -12.96711
 10            60           -10.14579     -15.29465     -8.987783
 20            60           -5.782707     -16.60495     -5.437419
 30            60           -2.986697     -18.12099     -2.855544
 40            60           -1.002369     -19.84534     -.946048 
 50            60            .456003      -21.84719      .481482 
 60            60            1.5181       -24.32879      1.529386
 70            60            2.24747      -27.78452      2.251779
 80            60            2.675588     -33.7383       2.67658 
 90            60            2.816906     -289.6054      2.816906
 0             70           -22.28608     -13.5074      -12.96711
 10            70           -10.84859     -14.26707     -9.219521
 20            70           -6.006685     -15.23825     -5.517004
 30            70           -2.998561     -16.42799     -2.805735
 40            70           -.883314      -17.87848     -.79742  
 50            70            .667937      -19.68922      .707755 
 60            70            1.798197     -22.06819      1.81599 
 70            70            2.575318     -25.48874      2.582095
 80            70            3.031973     -31.44081      3.033524
 90            70            3.182806     -288.8591      3.182806
 0             80           -28.17371     -13.10008     -12.96711
 10            80           -11.74175     -13.52855     -9.533602
 20            80           -6.361943     -14.1577      -5.694507
 30            80           -3.138023     -15.01465     -2.864878
 40            80           -.897848      -16.16204     -.770503 
 50            80            .737624      -17.71607      .799189 
 60            80            1.927304     -19.89479      1.955759
 70            80            2.744898     -23.17475      2.755996
 80            80            3.22531      -29.04437      3.227884
 90            80            3.383995     -288.3159      3.383995
 0             90           -999          -12.96711     -12.96711
 10            90           -12.8505      -13.06313     -9.945216
 20            90           -6.868206     -13.36438     -5.990145
 30            90           -3.425451     -13.91191     -3.053564
 40            90           -1.06744      -14.78077     -.886566 
 50            90            .642395      -16.09699      .733446 
 60            90            1.881654     -18.0856       1.925193
 70            90            2.731565     -21.22749      2.748984
 80            90            3.230395     -27.01355      3.234499
 90            90            3.395079     -288.1589      3.395079
 0             100          -28.17371     -13.10008     -12.96711
 10            100          -14.18648     -12.87307     -10.47001
 20            100          -7.537315     -12.87309     -6.422338
 30            100          -3.871601     -13.15092     -3.386986
 40            100          -1.402276     -13.78809     -1.158519
 50            100           .372314      -14.91424      .499014 
 60            100           1.651392     -16.75569      1.713616
 70            100           2.525481     -19.79328      2.55087 
 80            100           3.037382     -25.51719      3.043436
 90            100           3.206205     -288.3742      3.206205
 0             110          -22.28608     -13.5074      -12.96711
 10            110          -15.71834     -12.97617     -11.12403
 20            110          -8.369401     -12.7095      -7.008158
 30            110          -4.475684     -12.76307     -3.874975
 40            110          -1.900061     -13.2189      -1.590787
 50            110          -.069057      -14.20426      .095386 
 60            110           1.241083     -15.94177      1.323379
 70            110           2.131939     -18.90842      2.165983
 80            110           2.652008     -24.59117      2.660194
 90            110           2.82326      -288.8896      2.82326 
 0             120          -18.98771     -14.2165      -12.96711
 10            120          -17.3055      -13.40785     -11.92306
 20            120          -9.346741     -12.91289     -7.763324
 30            120          -5.22232      -12.78688     -4.521188
 40            120          -2.543955     -13.10683     -2.178289
 50            120          -.663104      -13.9932      -.465917 
 60            120           .670952      -15.66179      .770838 
 70            120           1.572423     -18.58369      1.614119
 80            120           2.09656      -24.24142      2.10664 
 90            120           2.268805     -289.7602      2.268805
 0             130          -16.80576     -15.28203     -12.96711
 10            130          -18.61475     -14.22925     -12.88017
 20            130          -10.42505     -13.54534     -8.700495
 30            130          -6.077188     -13.2803      -5.320224
 40            130          -3.299515     -13.50221     -2.903629
 50            130          -1.373754     -14.32228     -1.158899
 60            130          -.02109       -15.9481       .088454 
 70            130           .886418      -18.84422      .932382 
 80            130           1.411557     -24.48838      1.422706
 90            130           1.583721     -291.0467      1.583721
 0             140          -15.28203     -16.80576     -12.96711
 10            140          -19.22699     -15.5472      -13.99819
 20            140          -11.5252      -14.71279     -9.822584
 30            140          -6.982263     -14.34388     -6.250266
 40            140          -4.111286     -14.49775     -3.731105
 50            140          -2.144826     -15.27573     -1.938601
 60            140          -.77725       -16.87725     -.67193  
 70            140           .133323      -19.76049      .177601 
 80            140           .657531      -25.39873      .668286 
 90            140           .828943      -292.7761      .828943 
 0             150          -14.2165      -18.98771     -12.96711
 10            150          -19.08624     -17.56558     -15.24939
 20            150          -12.53503     -16.61723     -11.10287
 30            150          -7.853775     -16.17415     -7.257313
 40            150          -4.90126      -16.28295     -4.596276
 50            150          -2.899082     -17.0359      -2.734699
 60            150          -1.519343     -18.62523     -1.43559 
 70            150          -.607327      -21.50365     -.57214  
 80            150          -.084926      -27.14053     -.07638  
 90            150           .085454      -295.1247      .085454 
 0             160          -13.5074      -22.28608     -12.96711
 10            160          -18.59557     -20.74531     -16.52846
 20            160          -13.33423     -19.7175      -12.43528
 30            160          -8.588376     -19.22516     -8.228631
 40            160          -5.573392     -19.30608     -5.393306
 50            160          -3.542713     -20.04535     -3.446617
 60            160          -2.153501     -21.62964     -2.104778
 70            160          -1.240777     -24.50742     -1.220355
 80            160          -.720212      -30.14513     -.715257 
 90            160          -.550806      -298.6489     -.550806 
 0             170          -13.10008     -28.17371     -12.96711
 10            170          -18.16535     -26.56106     -17.57848
 20            170          -13.83572     -25.48641     -13.54846
 30            170          -9.081789     -24.96606     -8.971174
 40            170          -6.028646     -25.03201     -5.974354
 50            170          -3.979469     -25.76478     -3.950774
 60            170          -2.584079     -27.34752     -2.569601
 70            170          -1.67098      -30.22608     -1.664927
 80            170          -1.151715     -35.865       -1.150248
 90            170          -.982989      -999          -.982989 
 0             180          -12.96711     -999          -12.96711
 10            180          -18.0033      -999          -18.0033 
 20            180          -14.0046      -999          -14.0046 
 30            180          -9.255898     -999          -9.255898
 40            180          -6.19015      -999          -6.19015 
 50            180          -4.134566     -999          -4.134566
 60            180          -2.737014     -999          -2.737014
 70            180          -1.82379      -999          -1.82379 
 80            180          -1.304987     -999          -1.304987
 90            180          -1.136503     -999          -1.136503
 0             190          -13.10008     -28.17371     -12.96711
 10            190          -18.16535     -26.56106     -17.57848
 20            190          -13.83572     -25.48641     -13.54846
 30            190          -9.081789     -24.96606     -8.971174
 40            190          -6.028646     -25.03201     -5.974354
 50            190          -3.979469     -25.76478     -3.950774
 60            190          -2.584079     -27.34752     -2.569601
 70            190          -1.67098      -30.22608     -1.664927
 80            190          -1.151715     -35.865       -1.150248
 90            190          -.982989      -999          -.982989 
 0             200          -13.5074      -22.28608     -12.96711
 10            200          -18.59557     -20.74531     -16.52846
 20            200          -13.33423     -19.7175      -12.43528
 30            200          -8.588376     -19.22516     -8.228631
 40            200          -5.573392     -19.30608     -5.393306
 50            200          -3.542713     -20.04535     -3.446617
 60            200          -2.153501     -21.62964     -2.104778
 70            200          -1.240777     -24.50742     -1.220355
 80            200          -.720212      -30.14513     -.715257 
 90            200          -.550806      -298.5668     -.550806 
 0             210          -14.2165      -18.98771     -12.96711
 10            210          -19.08624     -17.56558     -15.24939
 20            210          -12.53503     -16.61723     -11.10287
 30            210          -7.853775     -16.17415     -7.257313
 40            210          -4.90126      -16.28295     -4.596276
 50            210          -2.899082     -17.0359      -2.734699
 60            210          -1.519343     -18.62523     -1.43559 
 70            210          -.607327      -21.50365     -.57214  
 80            210          -.084926      -27.14053     -.07638  
 90            210           .085454      -295.2407      .085454 
 0             220          -15.28203     -16.80576     -12.96711
 10            220          -19.22699     -15.5472      -13.99819
 20            220          -11.5252      -14.71279     -9.822584
 30            220          -6.982263     -14.34388     -6.250266
 40            220          -4.111286     -14.49775     -3.731105
 50            220          -2.144826     -15.27573     -1.938601
 60            220          -.77725       -16.87725     -.67193  
 70            220           .133323      -19.76049      .177601 
 80            220           .657531      -25.39873      .668286 
 90            220           .828943      -292.736       .828943 
 0             230          -16.80576     -15.28203     -12.96711
 10            230          -18.61475     -14.22925     -12.88017
 20            230          -10.42505     -13.54534     -8.700495
 30            230          -6.077188     -13.2803      -5.320224
 40            230          -3.299515     -13.50221     -2.903629
 50            230          -1.373754     -14.32228     -1.158899
 60            230          -.02109       -15.9481       .088454 
 70            230           .886418      -18.84422      .932382 
 80            230           1.411557     -24.48838      1.422706
 90            230           1.583721     -291.0326      1.583721
 0             240          -18.98771     -14.2165      -12.96711
 10            240          -17.3055      -13.40785     -11.92306
 20            240          -9.346741     -12.91289     -7.763324
 30            240          -5.22232      -12.78688     -4.521188
 40            240          -2.543955     -13.10683     -2.178289
 50            240          -.663104      -13.9932      -.465917 
 60            240           .670952      -15.66179      .770838 
 70            240           1.572423     -18.58369      1.614119
 80            240           2.09656      -24.24142      2.10664 
 90            240           2.268805     -289.7589      2.268805
 0             250          -22.28608     -13.5074      -12.96711
 10            250          -15.71834     -12.97617     -11.12403
 20            250          -8.369401     -12.7095      -7.008158
 30            250          -4.475684     -12.76307     -3.874975
 40            250          -1.900061     -13.2189      -1.590787
 50            250          -.069057      -14.20426      .095386 
 60            250           1.241083     -15.94177      1.323379
 70            250           2.131939     -18.90842      2.165983
 80            250           2.652008     -24.59117      2.660194
 90            250           2.82326      -288.889       2.82326 
 0             260          -28.17371     -13.10008     -12.96711
 10            260          -14.18648     -12.87307     -10.47001
 20            260          -7.537315     -12.87309     -6.422338
 30            260          -3.871601     -13.15092     -3.386986
 40            260          -1.402276     -13.78809     -1.158519
 50            260           .372314      -14.91424      .499014 
 60            260           1.651392     -16.75569      1.713616
 70            260           2.525481     -19.79328      2.55087 
 80            260           3.037382     -25.51719      3.043436
 90            260           3.206205     -288.3833      3.206205
 0             270          -999          -12.96711     -12.96711
 10            270          -12.8505      -13.06313     -9.945216
 20            270          -6.868206     -13.36438     -5.990145
 30            270          -3.425451     -13.91191     -3.053564
 40            270          -1.06744      -14.78077     -.886566 
 50            270           .642395      -16.09699      .733446 
 60            270           1.881654     -18.0856       1.925193
 70            270           2.731565     -21.22749      2.748984
 80            270           3.230395     -27.01355      3.234499
 90            270           3.395079     -288.2082      3.395079
 0             280          -28.17371     -13.10008     -12.96711
 10            280          -11.74175     -13.52855     -9.533602
 20            280          -6.361943     -14.1577      -5.694507
 30            280          -3.138023     -15.01465     -2.864878
 40            280          -.897848      -16.16204     -.770503 
 50            280           .737624      -17.71607      .799189 
 60            280           1.927304     -19.89479      1.955759
 70            280           2.744898     -23.17475      2.755996
 80            280           3.22531      -29.04437      3.227884
 90            280           3.383995     -288.3114      3.383995
 0             290          -22.28608     -13.5074      -12.96711
 10            290          -10.84859     -14.26707     -9.219521
 20            290          -6.006685     -15.23825     -5.517004
 30            290          -2.998561     -16.42799     -2.805735
 40            290          -.883314      -17.87848     -.79742  
 50            290           .667937      -19.68922      .707755 
 60            290           1.798197     -22.06819      1.81599 
 70            290           2.575318     -25.48874      2.582095
 80            290           3.031973     -31.44081      3.033524
 90            290           3.182806     -288.8472      3.182806
 0             300          -18.98771     -14.2165      -12.96711
 10            300          -10.14579     -15.29465     -8.987783
 20            300          -5.782707     -16.60495     -5.437419
 30            300          -2.986697     -18.12099     -2.855544
 40            300          -1.002369     -19.84534     -.946048 
 50            300           .456003      -21.84719      .481482 
 60            300           1.5181       -24.32879      1.529386
 70            300           2.24747      -27.78452      2.251779
 80            300           2.675588     -33.7383       2.67658 
 90            300           2.816906     -289.6054      2.816906
 0             310          -16.80576     -15.28203     -12.96711
 10            310          -9.605752     -16.65417     -8.82367 
 20            310          -5.664924     -18.28089     -5.433418
 30            310          -3.073877     -20.07619     -2.988122
 40            310          -1.223103     -21.96214     -1.186623
 50            310           .136762      -23.95689      .15365  
 60            310           1.124527     -26.29165      1.132393
 70            310           1.800824     -29.55209      1.804003
 80            310           2.196847     -35.35291      2.197611
 90            310           2.327403     -290.8725      2.327403
 0             320          -15.28203     -16.80576     -12.96711
 10            320          -9.20258      -18.43605     -8.713102
 20            320          -5.624987     -20.33739     -5.480673
 30            320          -3.224979     -22.32728     -3.171903
 40            320          -1.504403     -24.19562     -1.481095
 50            320          -.243477      -25.92679     -.231759 
 60            320           .668091      -27.8859       .674146 
 70            320           1.289235     -30.81878      1.291907
 80            320           1.651623     -36.41524      1.652301
 90            320           1.770855     -292.6282      1.770855
 0             330          -14.2165      -18.98771     -12.96711
 10            330          -8.913771     -20.83017     -8.643041
 20            330          -5.633584     -22.94991     -5.553756
 30            330          -3.400844     -25.03566     -3.37114 
 40            330          -1.798496     -26.7239      -1.784546
 50            330          -.629509      -28.05831     -.621666 
 60            330           .210148      -29.63221      .214649 
 70            330           .778698      -32.30785      .780831 
 80            330           1.108804     -37.76984      1.109366
 90            330           1.217133     -295.0161      1.217133
 0             340          -13.5074      -22.28608     -12.96711
 10            340          -8.721047     -24.28632     -8.602116
 20            340          -5.663169     -26.56112     -5.627995
 30            340          -3.562185     -28.66459     -3.548792
 40            340          -2.055628     -30.11163     -2.048839
 50            340          -.962453      -31.0939      -.958241 
 60            340          -.182792      -32.40758     -.180191 
 70            340           .341527      -34.94153      .342813 
 80            340           .644345      -40.33894      .644691 
 90            340           .743436      -298.4252      .743436 
 0             350          -13.10008     -28.17371     -12.96711
 10            350          -8.61093      -30.27113     -8.581398
 20            350          -5.691005     -32.63717     -5.68224 
 30            350          -3.674788     -34.72376     -3.671378
 40            350          -2.23108      -35.98058     -2.229249
 50            350          -1.18825      -36.74352     -1.187041
 60            350          -.448761      -37.92238     -.447984 
 70            350           .045773      -40.39249      .046166 
 80            350           .330149      -45.76365      .330256 
 90            350           .422985      -999           .422985 
 0             360          -12.96711     -999          -12.96711
 10            360          -8.575152     -999          -8.575152
 20            360          -5.70204      -999          -5.70204 
 30            360          -3.715126     -999          -3.715126
 40            360          -2.293362     -999          -2.293362
 50            360          -1.268223     -999          -1.268223
 60            360          -.54291       -999          -.54291  
 70            360          -.058918      -999          -.058918 
 80            360           .218917      -999           .218917 
 90            360           .309532      -999           .309532 
