                   ****************************************
                     MINI-NUMERICAL ELECTROMAGNETICS CODE
                                   MININEC
                   ****************************************

FREQUENCY (MHZ): 29.98
    WAVE LENGTH =  10  METERS

ENVIRONMENT (+1 FOR FREE SPACE, -1 FOR GROUND PLANE): +1

NO. OF GEO-OBJECTS: 1

ARC NO. 1
            COORDINATES                                 END         NO. OF
   X             Y             Z          RADIUS     CONNECTION     SEGMENTS
 1.591549      0             0                          1
 1.591549      0             0             .0674        1             22

                  **** ANTENNA GEOMETRY ****

ARC NO.  1 COORDINATES                                  CONNECTION PULSE
X             Y             Z             RADIUS        END1 END2  NO.
 1.52708       0             .448391       .0674         1    1   1
 1.338897      0             .860457       .0674         1    1   2
 1.042243      0             1.202813      .0674         1    1   3
 .661154       0             1.447724      .0674         1    1   4
 .226501       0             1.57535       .0674         1    1   5
-.226501       0             1.57535       .0674         1    1   6
-.661154       0             1.447724      .0674         1    1   7
-1.042243      0             1.202813      .0674         1    1   8
-1.338897      0             .860457       .0674         1    1   9
-1.52708       0             .448391       .0674         1    1  10
-1.591549      0             0             .0674         1    1  11
-1.52708       0            -.448391       .0674         1    1  12
-1.338897      0            -.860457       .0674         1    1  13
-1.042243      0            -1.202813      .0674         1    1  14
-.661154       0            -1.447724      .0674         1    1  15
-.226501       0            -1.57535       .0674         1    1  16
 .226501       0            -1.57535       .0674         1    1  17
 .661154       0            -1.447724      .0674         1    1  18
 1.042243      0            -1.202813      .0674         1    1  19
 1.338897      0            -.860457       .0674         1    1  20
 1.52708       0            -.448391       .0674         1    1  21
 1.591549      0             0             .0674         1    1  22

NO. OF SOURCES :  1
PULSE NO., VOLTAGE MAGNITUDE, PHASE (DEGREES): 22 , 1 , 0
NUMBER OF LOADS 0

********************    SOURCE DATA     ********************
PULSE 22      VOLTAGE = ( 1 , 0 J)
              CURRENT = ( 4.918742E-03 ,  4.966882E-03 J)
              IMPEDANCE = ( 100.662  , -101.6472 J)
              POWER =  2.459371E-03  WATTS

********************    CURRENT DATA    ********************

ARC NO.  1 :
PULSE         REAL          IMAGINARY     MAGNITUDE     PHASE
 NO.          (AMPS)        (AMPS)        (AMPS)        (DEGREES)
J              4.918742E-03  4.966882E-03  6.990275E-03  45.27901 
 1             4.721598E-03  3.410699E-03  5.824633E-03  35.84288 
 2             4.146555E-03  2.337822E-03  4.760182E-03  29.41425 
 3             3.241312E-03  1.258549E-03  3.477075E-03  21.22039 
 4             2.080640E-03  2.012843E-04  2.090353E-03  5.525687 
 5             7.598446E-04 -8.009970E-04  1.104065E-03 -46.51029 
 6            -6.133564E-04 -1.712049E-03  1.818603E-03 -109.7105 
 7            -1.927774E-03 -2.499681E-03  3.156694E-03 -127.6397 
 8            -3.077714E-03 -3.137807E-03  4.395242E-03 -134.4461 
 9            -3.971274E-03 -3.606849E-03  5.364735E-03 -137.7532 
 10           -4.537396E-03 -3.893421E-03  5.978854E-03 -139.368  
 11           -4.731214E-03 -3.989786E-03  6.188924E-03 -139.8594 
 12           -4.537396E-03 -3.893421E-03  5.978854E-03 -139.368  
 13           -3.971274E-03 -3.606849E-03  5.364735E-03 -137.7532 
 14           -3.077714E-03 -3.137807E-03  4.395242E-03 -134.4461 
 15           -1.927774E-03 -2.499681E-03  3.156694E-03 -127.6397 
 16           -6.133564E-04 -1.712049E-03  1.818603E-03 -109.7105 
 17            7.598446E-04 -8.009970E-04  1.104065E-03 -46.51029 
 18            2.080640E-03  2.012843E-04  2.090353E-03  5.525687 
 19            3.241312E-03  1.258549E-03  3.477075E-03  21.22039 
 20            4.146555E-03  2.337822E-03  4.760182E-03  29.41425 
 21            4.721598E-03  3.410699E-03  5.824633E-03  35.84288 
 22            4.918742E-03  4.966882E-03  6.990275E-03  45.27901 
J              4.918742E-03  4.966882E-03  6.990275E-03  45.27901 

********************     FAR FIELD      ********************

ZENITH ANGLE : INITIAL,INCREMENT,NUMBER: 0 , 10 , 10
AZIMUTH ANGLE: INITIAL,INCREMENT,NUMBER: 0 , 10 , 37

********************    PATTERN DATA    ********************
ZENITH        AZIMUTH       VERTICAL      HORIZONTAL    TOTAL
 ANGLE         ANGLE        PATTERN (DB)  PATTERN (DB)  PATTERN (DB)
 0             0            -12.96706     -999          -12.96706
 10            0            -8.575099     -999          -8.575099
 20            0            -5.701987     -999          -5.701987
 30            0            -3.715072     -999          -3.715072
 40            0            -2.293309     -999          -2.293309
 50            0            -1.268169     -999          -1.268169
 60            0            -.542856      -999          -.542856 
 70            0            -.058864      -999          -.058864 
 80            0             .218971      -999           .218971 
 90            0             .309586      -999           .309586 
 0             10           -13.10003     -28.17365     -12.96706
 10            10           -8.610876     -30.27108     -8.581345
 20            10           -5.690951     -32.63712     -5.682187
 30            10           -3.674735     -34.7237      -3.671325
 40            10           -2.231026     -35.98053     -2.229195
 50            10           -1.188196     -36.74346     -1.186988
 60            10           -.448707      -37.92233     -.44793  
 70            10            .045826      -40.39244      .046219 
 80            10            .330203      -45.7636       .33031  
 90            10            .423038      -999           .423038 
 0             20           -13.50734     -22.28603     -12.96706
 10            20           -8.720994     -24.28627     -8.602063
 20            20           -5.663116     -26.56107     -5.627942
 30            20           -3.562132     -28.66453     -3.548739
 40            20           -2.055575     -30.11157     -2.048785
 50            20           -.962399      -31.09385     -.958188 
 60            20           -.182739      -32.40752     -.180138 
 70            20            .34158       -34.94148      .342867 
 80            20            .644398      -40.33889      .644745 
 90            20            .743489      -298.4186      .743489 
 0             30           -14.21645     -18.98766     -12.96706
 10            30           -8.913718     -20.83012     -8.642987
 20            30           -5.633531     -22.94986     -5.553703
 30            30           -3.400791     -25.0356      -3.371087
 40            30           -1.798442     -26.72385     -1.784493
 50            30           -.629456      -28.05826     -.621612 
 60            30            .210201      -29.63216      .214702 
 70            30            .778751      -32.30779      .780884 
 80            30            1.108857     -37.76979      1.109419
 90            30            1.217186     -294.9855      1.217186
 0             40           -15.28198     -16.80571     -12.96706
 10            40           -9.202527     -18.436       -8.713049
 20            40           -5.624934     -20.33734     -5.48062 
 30            40           -3.224926     -22.32723     -3.17185 
 40            40           -1.50435      -24.19556     -1.481042
 50            40           -.243424      -25.92674     -.231705 
 60            40            .668144      -27.88585      .674199 
 70            40            1.289288     -30.81872      1.29196 
 80            40            1.651677     -36.41519      1.652354
 90            40            1.770908     -292.5677      1.770908
 0             50           -16.80571     -15.28198     -12.96706
 10            50           -9.605698     -16.65411     -8.823617
 20            50           -5.66487      -18.28083     -5.433365
 30            50           -3.073824     -20.07613     -2.988069
 40            50           -1.22305      -21.96209     -1.18657 
 50            50            .136815      -23.95684      .153703 
 60            50            1.12458      -26.2916       1.132447
 70            50            1.800877     -29.55204      1.804056
 80            50            2.1969       -35.35285      2.197664
 90            50            2.327456     -290.8497      2.327456
 0             60           -18.98766     -14.21645     -12.96706
 10            60           -10.14574     -15.2946      -8.98773 
 20            60           -5.782654     -16.6049      -5.437366
 30            60           -2.986644     -18.12093     -2.85549 
 40            60           -1.002316     -19.84529     -.945995 
 50            60            .456056      -21.84713      .481535 
 60            60            1.518153     -24.32874      1.529439
 70            60            2.247524     -27.78446      2.251833
 80            60            2.675642     -33.73825      2.676633
 90            60            2.816959     -289.6054      2.816959
 0             70           -22.28603     -13.50734     -12.96706
 10            70           -10.84854     -14.26702     -9.219467
 20            70           -6.006632     -15.2382      -5.51695 
 30            70           -2.998507     -16.42794     -2.805682
 40            70           -.883261      -17.87843     -.797366 
 50            70            .667991      -19.68917      .707808 
 60            70            1.79825      -22.06813      1.816043
 70            70            2.575371     -25.48869      2.582148
 80            70            3.032027     -31.44075      3.033577
 90            70            3.182859     -288.859       3.182859
 0             80           -28.17365     -13.10003     -12.96706
 10            80           -11.7417      -13.5285      -9.533549
 20            80           -6.36189      -14.15764     -5.694454
 30            80           -3.13797      -15.01459     -2.864825
 40            80           -.897794      -16.16198     -.770449 
 50            80            .737677      -17.71601      .799242 
 60            80            1.927358     -19.89474      1.955812
 70            80            2.744951     -23.1747       2.75605 
 80            80            3.225363     -29.04432      3.227938
 90            80            3.384048     -288.3158      3.384048
 0             90           -999          -12.96706     -12.96706
 10            90           -12.85045     -13.06308     -9.945162
 20            90           -6.868152     -13.36432     -5.990091
 30            90           -3.425398     -13.91186     -3.053511
 40            90           -1.067387     -14.78072     -.886512 
 50            90            .642448      -16.09694      .733499 
 60            90            1.881707     -18.08554      1.925246
 70            90            2.731619     -21.22744      2.749037
 80            90            3.230449     -27.01349      3.234552
 90            90            3.395132     -288.1589      3.395132
 0             100          -28.17365     -13.10003     -12.96706
 10            100          -14.18643     -12.87301     -10.46996
 20            100          -7.537261     -12.87304     -6.422285
 30            100          -3.871548     -13.15086     -3.386933
 40            100          -1.402223     -13.78804     -1.158466
 50            100           .372367      -14.91419      .499067 
 60            100           1.651445     -16.75564      1.71367 
 70            100           2.525535     -19.79323      2.550923
 80            100           3.037436     -25.51713      3.043489
 90            100           3.206258     -288.3741      3.206258
 0             110          -22.28603     -13.50734     -12.96706
 10            110          -15.71828     -12.97611     -11.12397
 20            110          -8.369347     -12.70945     -7.008105
 30            110          -4.475631     -12.76302     -3.874922
 40            110          -1.900008     -13.21885     -1.590733
 50            110          -.069003      -14.2042       .095439 
 60            110           1.241137     -15.94171      1.323432
 70            110           2.131992     -18.90837      2.166037
 80            110           2.652062     -24.59112      2.660247
 90            110           2.823313     -288.8896      2.823313
 0             120          -18.98766     -14.21645     -12.96706
 10            120          -17.30545     -13.4078      -11.923  
 20            120          -9.346687     -12.91284     -7.76327 
 30            120          -5.222267     -12.78683     -4.521135
 40            120          -2.543902     -13.10678     -2.178235
 50            120          -.66305       -13.99314     -.465863 
 60            120           .671005      -15.66174      .770891 
 70            120           1.572477     -18.58364      1.614172
 80            120           2.096613     -24.24136      2.106693
 90            120           2.268858     -289.7602      2.268858
 0             130          -16.80571     -15.28198     -12.96706
 10            130          -18.6147      -14.22919     -12.88012
 20            130          -10.425       -13.54529     -8.700441
 30            130          -6.077134     -13.28025     -5.32017 
 40            130          -3.299462     -13.50216     -2.903576
 50            130          -1.3737       -14.32222     -1.158846
 60            130          -.021037      -15.94805      .088508 
 70            130           .886471      -18.84417      .932436 
 80            130           1.41161      -24.48833      1.422759
 90            130           1.583775     -291.0466      1.583775
 0             140          -15.28198     -16.80571     -12.96706
 10            140          -19.22694     -15.54715     -13.99814
 20            140          -11.52515     -14.71273     -9.822531
 30            140          -6.98221      -14.34382     -6.250213
 40            140          -4.111232     -14.4977      -3.731052
 50            140          -2.144773     -15.27568     -1.938547
 60            140          -.777196      -16.87719     -.671877 
 70            140           .133377      -19.76044      .177655 
 80            140           .657584      -25.39868      .66834  
 90            140           .828997      -292.7761      .828997 
 0             150          -14.21645     -18.98766     -12.96706
 10            150          -19.08619     -17.56552     -15.24934
 20            150          -12.53498     -16.61718     -11.10282
 30            150          -7.853721     -16.17409     -7.257259
 40            150          -4.901207     -16.2829      -4.596223
 50            150          -2.899029     -17.03585     -2.734646
 60            150          -1.51929      -18.62518     -1.435537
 70            150          -.607274      -21.50359     -.572086 
 80            150          -.084873      -27.14048     -.076326 
 90            150           .085508      -295.1247      .085508 
 0             160          -13.50734     -22.28603     -12.96706
 10            160          -18.59551     -20.74525     -16.52841
 20            160          -13.33417     -19.71744     -12.43522
 30            160          -8.588323     -19.22511     -8.228578
 40            160          -5.573339     -19.30603     -5.393253
 50            160          -3.54266      -20.0453      -3.446564
 60            160          -2.153448     -21.62958     -2.104725
 70            160          -1.240723     -24.50737     -1.220301
 80            160          -.720158      -30.14507     -.715203 
 90            160          -.550753      -298.6488     -.550753 
 0             170          -13.10003     -28.17365     -12.96706
 10            170          -18.16529     -26.56101     -17.57843
 20            170          -13.83567     -25.48636     -13.54841
 30            170          -9.081735     -24.96601     -8.97112 
 40            170          -6.028592     -25.03195     -5.974301
 50            170          -3.979416     -25.76472     -3.95072 
 60            170          -2.584026     -27.34746     -2.569547
 70            170          -1.670927     -30.22603     -1.664874
 80            170          -1.151662     -35.86494     -1.150195
 90            170          -.982935      -999          -.982935 
 0             180          -12.96706     -999          -12.96706
 10            180          -18.00324     -999          -18.00324
 20            180          -14.00455     -999          -14.00455
 30            180          -9.255844     -999          -9.255844
 40            180          -6.190096     -999          -6.190096
 50            180          -4.134513     -999          -4.134513
 60            180          -2.736961     -999          -2.736961
 70            180          -1.823736     -999          -1.823736
 80            180          -1.304934     -999          -1.304934
 90            180          -1.13645      -999          -1.13645 
 0             190          -13.10003     -28.17365     -12.96706
 10            190          -18.16529     -26.56101     -17.57843
 20            190          -13.83567     -25.48636     -13.54841
 30            190          -9.081735     -24.96601     -8.97112 
 40            190          -6.028592     -25.03195     -5.974301
 50            190          -3.979416     -25.76472     -3.95072 
 60            190          -2.584026     -27.34746     -2.569547
 70            190          -1.670927     -30.22603     -1.664874
 80            190          -1.151662     -35.86494     -1.150195
 90            190          -.982935      -999          -.982935 
 0             200          -13.50734     -22.28603     -12.96706
 10            200          -18.59551     -20.74525     -16.52841
 20            200          -13.33417     -19.71744     -12.43522
 30            200          -8.588323     -19.22511     -8.228578
 40            200          -5.573339     -19.30603     -5.393253
 50            200          -3.54266      -20.0453      -3.446564
 60            200          -2.153448     -21.62958     -2.104725
 70            200          -1.240723     -24.50737     -1.220301
 80            200          -.720158      -30.14507     -.715203 
 90            200          -.550753      -298.5667     -.550753 
 0             210          -14.21645     -18.98766     -12.96706
 10            210          -19.08619     -17.56552     -15.24934
 20            210          -12.53498     -16.61718     -11.10282
 30            210          -7.853721     -16.17409     -7.257259
 40            210          -4.901207     -16.2829      -4.596223
 50            210          -2.899029     -17.03585     -2.734646
 60            210          -1.51929      -18.62518     -1.435537
 70            210          -.607274      -21.50359     -.572086 
 80            210          -.084873      -27.14048     -.076326 
 90            210           .085508      -295.2406      .085508 
 0             220          -15.28198     -16.80571     -12.96706
 10            220          -19.22694     -15.54715     -13.99814
 20            220          -11.52515     -14.71273     -9.822531
 30            220          -6.98221      -14.34382     -6.250213
 40            220          -4.111232     -14.4977      -3.731052
 50            220          -2.144773     -15.27568     -1.938547
 60            220          -.777196      -16.87719     -.671877 
 70            220           .133377      -19.76044      .177655 
 80            220           .657584      -25.39868      .66834  
 90            220           .828997      -292.736       .828997 
 0             230          -16.80571     -15.28198     -12.96706
 10            230          -18.6147      -14.22919     -12.88012
 20            230          -10.425       -13.54529     -8.700441
 30            230          -6.077134     -13.28025     -5.32017 
 40            230          -3.299462     -13.50216     -2.903576
 50            230          -1.3737       -14.32222     -1.158846
 60            230          -.021037      -15.94805      .088508 
 70            230           .886471      -18.84417      .932436 
 80            230           1.41161      -24.48833      1.422759
 90            230           1.583775     -291.0326      1.583775
 0             240          -18.98766     -14.21645     -12.96706
 10            240          -17.30545     -13.4078      -11.923  
 20            240          -9.346687     -12.91284     -7.76327 
 30            240          -5.222267     -12.78683     -4.521135
 40            240          -2.543902     -13.10678     -2.178235
 50            240          -.66305       -13.99314     -.465863 
 60            240           .671005      -15.66174      .770891 
 70            240           1.572477     -18.58364      1.614172
 80            240           2.096613     -24.24136      2.106693
 90            240           2.268858     -289.7589      2.268858
 0             250          -22.28603     -13.50734     -12.96706
 10            250          -15.71828     -12.97611     -11.12397
 20            250          -8.369347     -12.70945     -7.008105
 30            250          -4.475631     -12.76302     -3.874922
 40            250          -1.900008     -13.21885     -1.590733
 50            250          -.069003      -14.2042       .095439 
 60            250           1.241137     -15.94171      1.323432
 70            250           2.131992     -18.90837      2.166037
 80            250           2.652062     -24.59112      2.660247
 90            250           2.823313     -288.8889      2.823313
 0             260          -28.17365     -13.10003     -12.96706
 10            260          -14.18643     -12.87301     -10.46996
 20            260          -7.537261     -12.87304     -6.422285
 30            260          -3.871548     -13.15086     -3.386933
 40            260          -1.402223     -13.78804     -1.158466
 50            260           .372367      -14.91419      .499067 
 60            260           1.651445     -16.75564      1.71367 
 70            260           2.525535     -19.79323      2.550923
 80            260           3.037436     -25.51713      3.043489
 90            260           3.206258     -288.3833      3.206258
 0             270          -999          -12.96706     -12.96706
 10            270          -12.85045     -13.06308     -9.945162
 20            270          -6.868152     -13.36432     -5.990091
 30            270          -3.425398     -13.91186     -3.053511
 40            270          -1.067387     -14.78072     -.886512 
 50            270           .642448      -16.09694      .733499 
 60            270           1.881707     -18.08554      1.925246
 70            270           2.731619     -21.22744      2.749037
 80            270           3.230449     -27.01349      3.234552
 90            270           3.395132     -288.2081      3.395132
 0             280          -28.17365     -13.10003     -12.96706
 10            280          -11.7417      -13.5285      -9.533549
 20            280          -6.36189      -14.15764     -5.694454
 30            280          -3.13797      -15.01459     -2.864825
 40            280          -.897794      -16.16198     -.770449 
 50            280           .737677      -17.71601      .799242 
 60            280           1.927358     -19.89474      1.955812
 70            280           2.744951     -23.1747       2.75605 
 80            280           3.225363     -29.04432      3.227938
 90            280           3.384048     -288.3113      3.384048
 0             290          -22.28603     -13.50734     -12.96706
 10            290          -10.84854     -14.26702     -9.219467
 20            290          -6.006632     -15.2382      -5.51695 
 30            290          -2.998507     -16.42794     -2.805682
 40            290          -.883261      -17.87843     -.797366 
 50            290           .667991      -19.68917      .707808 
 60            290           1.79825      -22.06813      1.816043
 70            290           2.575371     -25.48869      2.582148
 80            290           3.032027     -31.44075      3.033577
 90            290           3.182859     -288.8471      3.182859
 0             300          -18.98766     -14.21645     -12.96706
 10            300          -10.14574     -15.2946      -8.98773 
 20            300          -5.782654     -16.6049      -5.437366
 30            300          -2.986644     -18.12093     -2.85549 
 40            300          -1.002316     -19.84529     -.945995 
 50            300           .456056      -21.84713      .481535 
 60            300           1.518153     -24.32874      1.529439
 70            300           2.247524     -27.78446      2.251833
 80            300           2.675642     -33.73825      2.676633
 90            300           2.816959     -289.6054      2.816959
 0             310          -16.80571     -15.28198     -12.96706
 10            310          -9.605698     -16.65411     -8.823617
 20            310          -5.66487      -18.28083     -5.433365
 30            310          -3.073824     -20.07613     -2.988069
 40            310          -1.22305      -21.96209     -1.18657 
 50            310           .136815      -23.95684      .153703 
 60            310           1.12458      -26.2916       1.132447
 70            310           1.800877     -29.55204      1.804056
 80            310           2.1969       -35.35285      2.197664
 90            310           2.327456     -290.8725      2.327456
 0             320          -15.28198     -16.80571     -12.96706
 10            320          -9.202527     -18.436       -8.713049
 20            320          -5.624934     -20.33734     -5.48062 
 30            320          -3.224926     -22.32723     -3.17185 
 40            320          -1.50435      -24.19556     -1.481042
 50            320          -.243424      -25.92674     -.231705 
 60            320           .668144      -27.88585      .674199 
 70            320           1.289288     -30.81872      1.29196 
 80            320           1.651677     -36.41519      1.652354
 90            320           1.770908     -292.6281      1.770908
 0             330          -14.21645     -18.98766     -12.96706
 10            330          -8.913718     -20.83012     -8.642987
 20            330          -5.633531     -22.94986     -5.553703
 30            330          -3.400791     -25.0356      -3.371087
 40            330          -1.798442     -26.72385     -1.784493
 50            330          -.629456      -28.05826     -.621612 
 60            330           .210201      -29.63216      .214702 
 70            330           .778751      -32.30779      .780884 
 80            330           1.108857     -37.76979      1.109419
 90            330           1.217186     -295.0161      1.217186
 0             340          -13.50734     -22.28603     -12.96706
 10            340          -8.720994     -24.28627     -8.602063
 20            340          -5.663116     -26.56107     -5.627942
 30            340          -3.562132     -28.66453     -3.548739
 40            340          -2.055575     -30.11157     -2.048785
 50            340          -.962399      -31.09385     -.958188 
 60            340          -.182739      -32.40752     -.180138 
 70            340           .34158       -34.94148      .342867 
 80            340           .644398      -40.33889      .644745 
 90            340           .743489      -298.4251      .743489 
 0             350          -13.10003     -28.17365     -12.96706
 10            350          -8.610876     -30.27108     -8.581345
 20            350          -5.690951     -32.63712     -5.682187
 30            350          -3.674735     -34.7237      -3.671325
 40            350          -2.231026     -35.98053     -2.229195
 50            350          -1.188196     -36.74346     -1.186988
 60            350          -.448707      -37.92233     -.44793  
 70            350           .045826      -40.39244      .046219 
 80            350           .330203      -45.7636       .33031  
 90            350           .423038      -999           .423038 
 0             360          -12.96706     -999          -12.96706
 10            360          -8.575099     -999          -8.575099
 20            360          -5.701987     -999          -5.701987
 30            360          -3.715072     -999          -3.715072
 40            360          -2.293309     -999          -2.293309
 50            360          -1.268169     -999          -1.268169
 60            360          -.542856      -999          -.542856 
 70            360          -.058864      -999          -.058864 
 80            360           .218971      -999           .218971 
 90            360           .309586      -999           .309586 