                   ****************************************
                     MINI-NUMERICAL ELECTROMAGNETICS CODE
                                   MININEC
                   ****************************************

FREQUENCY (MHZ): 299.8
    WAVE LENGTH =  1  METERS

ENVIRONMENT (+1 FOR FREE SPACE, -1 FOR GROUND PLANE): -1
 NUMBER OF MEDIA (0 FOR PERFECTLY CONDUCTING GROUND):  0

NO. OF GEO-OBJECTS: 1

ARC NO. 1
            COORDINATES                                 END         NO. OF
   X             Y             Z          RADIUS     CONNECTION     SEGMENTS
 .159155       0             .5                         1
 .159155       0             .5            .00674       1             22

                  **** ANTENNA GEOMETRY ****

ARC NO.  1 COORDINATES                                  CONNECTION PULSE
X             Y             Z             RADIUS        END1 END2  NO.
 .152708       0             .544839       .00674        1    1   1
 .13389        0             .586046       .00674        1    1   2
 .104224       0             .620281       .00674        1    1   3
 .066115       0             .644772       .00674        1    1   4
 .02265        0             .657535       .00674        1    1   5
-.02265        0             .657535       .00674        1    1   6
-.066115       0             .644772       .00674        1    1   7
-.104224       0             .620281       .00674        1    1   8
-.13389        0             .586046       .00674        1    1   9
-.152708       0             .544839       .00674        1    1  10
-.159155       0             .5            .00674        1    1  11
-.152708       0             .455161       .00674        1    1  12
-.13389        0             .413954       .00674        1    1  13
-.104224       0             .379719       .00674        1    1  14
-.066115       0             .355228       .00674        1    1  15
-.02265        0             .342465       .00674        1    1  16
 .02265        0             .342465       .00674        1    1  17
 .066115       0             .355228       .00674        1    1  18
 .104224       0             .379719       .00674        1    1  19
 .13389        0             .413954       .00674        1    1  20
 .152708       0             .455161       .00674        1    1  21
 .159155       0             .5            .00674        1    1  22

NO. OF SOURCES :  1
PULSE NO., VOLTAGE MAGNITUDE, PHASE (DEGREES): 22 , 1 , 0
NUMBER OF LOADS 0

********************    SOURCE DATA     ********************
PULSE 22      VOLTAGE = ( 1 , 0 J)
              CURRENT = ( 5.023784E-03 ,  5.354191E-03 J)
              IMPEDANCE = ( 93.19568 , -99.325   J)
              POWER =  2.511892E-03  WATTS

********************    CURRENT DATA    ********************

ARC NO.  1 :
PULSE         REAL          IMAGINARY     MAGNITUDE     PHASE
 NO.          (AMPS)        (AMPS)        (AMPS)        (DEGREES)
J              5.023784E-03  5.354191E-03  7.342055E-03  46.82352 
 1             4.866243E-03  3.749176E-03  6.143015E-03  37.6123  
 2             4.312657E-03  2.598263E-03  5.034876E-03  31.06786 
 3             3.407601E-03  1.420922E-03  3.691987E-03  22.63546 
 4             2.227054E-03  2.558779E-04  2.241705E-03  6.554272 
 5             8.707481E-04 -8.541324E-04  1.219731E-03 -44.44809 
 6            -5.473890E-04 -1.864401E-03  1.943097E-03 -106.3623 
 7            -1.909428E-03 -2.735683E-03  3.336147E-03 -124.9139 
 8            -3.103424E-03 -3.436102E-03  4.630123E-03 -132.0878 
 9            -4.032622E-03 -3.941462E-03  5.638897E-03 -135.655  
 10           -4.623352E-03 -4.235134E-03  6.269908E-03 -137.5093 
 11           -4.830930E-03 -4.308202E-03  6.472904E-03 -138.2736 
 12           -4.642756E-03 -4.160005E-03  6.233846E-03 -138.139  
 13           -4.078060E-03 -3.798563E-03  5.573119E-03 -137.0323 
 14           -3.184656E-03 -3.239936E-03  4.543041E-03 -134.507  
 15           -2.034045E-03 -2.506300E-03  3.227828E-03 -129.0618 
 16           -7.160616E-04 -1.623904E-03  1.774770E-03 -113.7951 
 17            6.670100E-04 -6.227056E-04  9.125045E-04 -43.03254 
 18            2.007535E-03  4.621369E-04  2.060040E-03  12.96371 
 19            3.200299E-03  1.589473E-03  3.573281E-03  26.41193 
 20            4.149685E-03  2.718473E-03  4.960845E-03  33.22895 
 21            4.776260E-03  3.812047E-03  6.111004E-03  38.59421 
 22            5.023784E-03  5.354191E-03  7.342055E-03  46.82352 
J              5.023784E-03  5.354191E-03  7.342055E-03  46.82352 

********************     FAR FIELD      ********************

ZENITH ANGLE : INITIAL,INCREMENT,NUMBER: 0 , 10 , 10
AZIMUTH ANGLE: INITIAL,INCREMENT,NUMBER: 0 , 10 , 37

********************    PATTERN DATA    ********************
ZENITH        AZIMUTH       VERTICAL      HORIZONTAL    TOTAL
 ANGLE         ANGLE        PATTERN (DB)  PATTERN (DB)  PATTERN (DB)
 0             0            -7.20539      -999          -7.20539 
 10            0            -2.642168     -999          -2.642168
 20            0             .157071      -999           .157071 
 30            0             1.532054     -999           1.532054
 40            0             1.14725      -999           1.14725 
 50            0            -2.562519     -999          -2.562519
 60            0            -34.51179     -999          -34.51179
 70            0            -.157192      -999          -.157192 
 80            0             5.128961     -999           5.128961
 90            0             6.568678     -999           6.568678
 0             10           -7.338361     -22.41199     -7.20539 
 10            10           -2.673811     -24.62652     -2.646197
 20            10            .173261      -27.19429      .181216 
 30            10            1.578079     -29.50625      1.581461
 40            10            1.215935     -31.29772      1.218368
 50            10           -2.474121     -34.15127     -2.47117 
 60            10           -34.61602     -40.36927     -33.59212
 70            10           -.052482      -43.53506     -.052287 
 80            10            5.241943     -43.79438      5.241997
 90            10            6.684198     -999           6.684198
 0             20           -7.745674     -16.52436     -7.20539 
 10            20           -2.771488     -18.63992     -2.660473
 20            20            .216239      -21.13877      .247913 
 30            20            1.707176     -23.56967      1.720043
 40            20            1.409807     -25.64271      1.41836 
 50            20           -2.224194     -28.60865     -2.214221
 60            20           -34.94456     -34.3661      -31.63541
 70            20            .243238      -37.2321       .244014 
 80            20            5.561051     -38.12507      5.561237
 90            20            7.010465     -999           7.010465
 0             30           -8.454778     -13.22599     -7.20539 
 10            30           -2.943317     -15.1804      -2.691309
 20            30            .270074      -17.55377      .341169 
 30            30            1.894296     -20.12108      1.921516
 40            30            1.695328     -22.65278      1.711257
 50            30           -1.854371     -25.88624     -1.837242
 60            30           -35.54771     -30.88824     -29.61064
 70            30            .680101      -33.04743      .681941 
 80            30            6.032739     -34.86827      6.033092
 90            30            7.49276      -999           7.49276 
 0             40           -9.520311     -11.04404     -7.20539 
 10            40           -3.202451     -12.78092     -2.748467
 20            40            .31083       -14.96418      .437863 
 30            40            2.103234     -17.6091       2.149391
 40            40            2.025179     -20.70731      2.048267
 50            40           -1.422348     -24.49258     -1.400984
 60            40           -36.52111     -28.48045     -27.84707
 70            40            1.189802     -29.46632      1.193534
 80            40            6.584113     -32.09815      6.584701
 90            40            8.056732     -999           8.056732
 0             50           -11.04404     -9.520311     -7.20539 
 10            50           -3.566498     -10.99138     -2.844254
 20            50            .309758      -12.91983      .511457 
 30            50            2.29278      -15.51993      2.364057
 40            50            2.347214     -19.1297       2.378015
 50            50           -.990245      -23.88571     -.968005 
 60            50           -38.03624     -26.70572     -26.39725
 70            50            1.699818     -26.20218      1.706853
 80            50            7.138389     -29.15118      7.139409
 90            50            8.624241     -999           8.624241
 0             60           -13.22599     -8.454778     -7.20539 
 10            60           -4.056712     -9.621858     -2.99262 
 20            60            .236641      -11.24167      .53514  
 30            60            2.422332     -13.65831      2.528116
 40            60            2.611945     -17.53644      2.653714
 50            60           -.615488      -23.62916     -.593844 
 60            60           -40.43124     -25.38613     -25.2523 
 70            60            2.144021     -23.29987      2.156402
 80            60            7.626153     -26.14212      7.627977
 90            60            9.12482      -999           9.12482 
 0             70           -16.52436     -7.745674     -7.20539 
 10            70           -4.696784     -8.582162     -3.208432
 20            70            .062751      -9.859023      .483848 
 30            70            2.455993     -11.98833      2.609335
 40            70            2.777369     -15.83444      2.836748
 50            70           -.34548       -23.19217     -.32299  
 60            70           -44.54522     -24.44046     -24.39827
 70            70            2.468476     -20.8363       2.48872 
 80            70            7.991291     -23.40651      7.994438
 90            70            9.501641     -999           9.501641
 0             80           -22.41199     -7.338361     -7.20539 
 10            80           -5.510755     -7.829899     -3.507029
 20            80           -.236735      -8.752279      .335166 
 30            80            2.365115     -10.54735      2.581717
 40            80            2.811444     -14.16126      2.89778 
 50            80           -.215299      -22.19488     -.187855 
 60            80           -53.33322     -23.83108     -23.82621
 70            80            2.63367      -18.84908      2.664429
 80            80            8.193078     -21.13733      8.198142
 90            80            9.713569     -999           9.713569
 0             90           -999          -7.20539      -7.20539 
 10            90           -6.51863      -7.349763     -3.904044
 20            90           -.680633      -7.926911      .069455 
 30            90            2.129825     -9.390196      2.425566
 40            90            2.693147     -12.70389      2.81671 
 50            90           -.247066      -20.79972     -.208993 
 60            90           -49.58705     -23.54251     -23.53173
 70            90            2.614921     -17.3464       2.65852 
 80            90            8.206411     -19.3948       8.21395 
 90            90            9.735332     -999           9.735332
 0             100          -22.41199     -7.338361     -7.20539 
 10            100          -7.726162     -7.14471      -4.415412
 20            100          -1.279384     -7.401659     -.330429 
 30            100           1.740268     -8.565854      2.12724 
 40            100           2.413106     -11.59327      2.582405
 50            100          -.449773      -19.45133     -.39546  
 60            100          -42.19074     -23.57253     -23.51323
 70            100           2.402354     -16.32553      2.460177
 80            100           8.021607     -18.18406      8.031999
 90            100           9.557276     -999           9.557276
 0             110          -16.52436     -7.745674     -7.20539 
 10            110          -9.101399     -7.233221     -5.057323
 20            110          -2.031664     -7.205106     -.879395 
 30            110           1.198272     -8.116164      1.679192
 40            110           1.974539     -10.90382      2.192807
 50            110          -.81883       -18.46101     -.744724 
 60            110          -38.21235     -23.92966     -23.77061
 70            110           2.00123      -15.78552      2.07293 
 80            110           7.644582     -17.4986       7.65785 
 90            110           9.185503     -999           9.185503
 0             120          -13.22599     -8.454778     -7.20539 
 10            120          -10.52863     -7.6513       -5.845609
 20            120          -2.919232     -7.378432     -1.589715
 30            120           .519939      -8.084727      1.080943
 40            120           1.394937     -10.68501      1.655957
 50            120          -1.334943     -17.97391     -1.241784
 60            120          -35.64237     -24.63587     -24.30439
 70            120           1.433045     -15.73685      1.515585
 80            120           7.097766     -17.34081      7.113367
 90            120           8.642735     -999           8.642735
 0             130          -11.04404     -9.520311     -7.20539 
 10            130          -11.7581      -8.460544     -6.793288
 20            130          -3.900096     -7.984803     -2.468644
 30            130          -.260763      -8.531524      .342098 
 40            130           .70853       -10.99196      .992619 
 50            130          -1.962366     -18.06902     -1.857206
 60            130          -33.86662     -25.73557     -25.11434
 70            130           .7374        -16.21341      .824168 
 80            130           6.421719     -17.73714      6.438355
 90            130           7.969875     -999           7.969875
 0             140          -9.520311     -11.04404     -7.20539 
 10            140          -12.47301     -9.768163     -7.903027
 20            140          -4.902626     -9.130714     -3.510958
 30            140          -1.088325     -9.557584     -.510686 
 40            140          -.031172      -11.91765      .241372 
 50            140          -2.647209     -18.83779     -2.544038
 60            140          -32.61798     -27.31699     -26.19411
 70            140          -.025964      -17.29486      .054731 
 80            140           5.676802     -18.76104      5.692406
 90            140           7.227599     -999           7.227599
 0             150          -8.454778     -13.22599     -7.20539 
 10            150          -12.57238     -11.77827     -9.146902
 20            150          -5.827882     -11.01839     -4.679584
 30            150          -1.884663     -11.35927     -1.420258
 40            150          -.750785      -13.65046     -.53356  
 50            150          -3.317562     -20.46033     -3.23451 
 60            150          -31.75343     -29.56505     -27.51254
 70            150          -.776812      -19.1597      -.714242 
 80            150           4.943126     -20.58611      4.955267
 90            150           6.496201     -999           6.496201
 0             160          -7.745674     -16.52436     -7.20539 
 10            160          -12.30486     -14.95199     -10.41948
 20            160          -6.568758     -14.1067      -5.863647
 30            160          -2.555188     -14.39025     -2.279498
 40            160          -1.36192      -16.63729     -1.234897
 50            160          -3.888489     -23.37507     -3.839883
 60            160          -31.1873      -32.92329     -28.95883
 70            160          -1.419233     -22.24697     -1.383488
 80            160           4.315426     -23.64765      4.322363
 90            160           5.870403     -999           5.870403
 0             170          -7.338361     -22.41199     -7.20539 
 10            170          -12.0072      -20.7641      -11.46436
 20            170          -7.04123      -19.86847     -6.820442
 30            170          -3.005294     -20.11929     -2.921696
 40            170          -1.775019     -22.3419      -1.73707 
 50            170          -4.274914     -29.03916     -4.260438
 60            170          -30.86699     -38.85229     -30.22606
 70            170          -1.855718     -28.01443     -1.845213
 80            170           3.889176     -29.40073      3.891212
 90            170           5.445473     -999           5.445473
 0             180          -7.20539      -999          -7.20539 
 10            180          -11.88705     -999          -11.88705
 20            180          -7.202344     -999          -7.202344
 30            180          -3.164105     -999          -3.164105
 40            180          -1.921385     -999          -1.921385
 50            180          -4.411903     -999          -4.411903
 60            180          -30.76335     -999          -30.76335
 70            180          -2.010801     -999          -2.010801
 80            180           3.737796     -999           3.737796
 90            180           5.294573     -999           5.294573
 0             190          -7.338361     -22.41199     -7.20539 
 10            190          -12.0072      -20.7641      -11.46436
 20            190          -7.04123      -19.86847     -6.820442
 30            190          -3.005294     -20.11929     -2.921696
 40            190          -1.775019     -22.3419      -1.73707 
 50            190          -4.274914     -29.03916     -4.260438
 60            190          -30.86699     -38.85229     -30.22606
 70            190          -1.855718     -28.01443     -1.845213
 80            190           3.889176     -29.40073      3.891212
 90            190           5.445473     -999           5.445473
 0             200          -7.745674     -16.52436     -7.20539 
 10            200          -12.30486     -14.95199     -10.41948
 20            200          -6.568758     -14.1067      -5.863647
 30            200          -2.555188     -14.39025     -2.279498
 40            200          -1.36192      -16.63729     -1.234897
 50            200          -3.888489     -23.37507     -3.839883
 60            200          -31.1873      -32.92329     -28.95883
 70            200          -1.419233     -22.24697     -1.383488
 80            200           4.315426     -23.64765      4.322363
 90            200           5.870403     -999           5.870403
 0             210          -8.454778     -13.22599     -7.20539 
 10            210          -12.57238     -11.77827     -9.146902
 20            210          -5.827882     -11.01839     -4.679584
 30            210          -1.884663     -11.35927     -1.420258
 40            210          -.750785      -13.65046     -.53356  
 50            210          -3.317562     -20.46033     -3.23451 
 60            210          -31.75343     -29.56505     -27.51254
 70            210          -.776812      -19.1597      -.714242 
 80            210           4.943126     -20.58611      4.955267
 90            210           6.496201     -999           6.496201
 0             220          -9.520311     -11.04404     -7.20539 
 10            220          -12.47301     -9.768163     -7.903027
 20            220          -4.902626     -9.130714     -3.510958
 30            220          -1.088325     -9.557584     -.510686 
 40            220          -.031172      -11.91765      .241372 
 50            220          -2.647209     -18.83779     -2.544038
 60            220          -32.61798     -27.31699     -26.19411
 70            220          -.025964      -17.29486      .054731 
 80            220           5.676802     -18.76104      5.692406
 90            220           7.227599     -999           7.227599
 0             230          -11.04404     -9.520311     -7.20539 
 10            230          -11.7581      -8.460544     -6.793288
 20            230          -3.900096     -7.984803     -2.468644
 30            230          -.260763      -8.531524      .342098 
 40            230           .70853       -10.99196      .992619 
 50            230          -1.962366     -18.06902     -1.857206
 60            230          -33.86662     -25.73557     -25.11434
 70            230           .7374        -16.21341      .824168 
 80            230           6.421719     -17.73714      6.438355
 90            230           7.969875     -999           7.969875
 0             240          -13.22599     -8.454778     -7.20539 
 10            240          -10.52863     -7.6513       -5.845609
 20            240          -2.919232     -7.378432     -1.589715
 30            240           .519939      -8.084727      1.080943
 40            240           1.394937     -10.68501      1.655957
 50            240          -1.334943     -17.97391     -1.241784
 60            240          -35.64237     -24.63587     -24.30439
 70            240           1.433045     -15.73685      1.515585
 80            240           7.097766     -17.34081      7.113367
 90            240           8.642735     -999           8.642735
 0             250          -16.52436     -7.745674     -7.20539 
 10            250          -9.101399     -7.233221     -5.057323
 20            250          -2.031664     -7.205106     -.879395 
 30            250           1.198272     -8.116164      1.679192
 40            250           1.974539     -10.90382      2.192807
 50            250          -.81883       -18.46101     -.744724 
 60            250          -38.21235     -23.92966     -23.77061
 70            250           2.00123      -15.78552      2.07293 
 80            250           7.644582     -17.4986       7.65785 
 90            250           9.185503     -999           9.185503
 0             260          -22.41199     -7.338361     -7.20539 
 10            260          -7.726162     -7.14471      -4.415412
 20            260          -1.279384     -7.401659     -.330429 
 30            260           1.740268     -8.565854      2.12724 
 40            260           2.413106     -11.59327      2.582405
 50            260          -.449773      -19.45133     -.39546  
 60            260          -42.19074     -23.57253     -23.51323
 70            260           2.402354     -16.32553      2.460177
 80            260           8.021607     -18.18406      8.031999
 90            260           9.557276     -999           9.557276
 0             270          -999          -7.20539      -7.20539 
 10            270          -6.51863      -7.349763     -3.904044
 20            270          -.680633      -7.926911      .069455 
 30            270           2.129825     -9.390196      2.425566
 40            270           2.693147     -12.70389      2.81671 
 50            270          -.247066      -20.79972     -.208993 
 60            270          -49.58705     -23.54251     -23.53173
 70            270           2.614921     -17.3464       2.65852 
 80            270           8.206411     -19.3948       8.21395 
 90            270           9.735332     -999           9.735332
 0             280          -22.41199     -7.338361     -7.20539 
 10            280          -5.510755     -7.829899     -3.507029
 20            280          -.236735      -8.752279      .335166 
 30            280           2.365115     -10.54735      2.581717
 40            280           2.811444     -14.16126      2.89778 
 50            280          -.215299      -22.19488     -.187855 
 60            280          -53.33322     -23.83108     -23.82621
 70            280           2.63367      -18.84908      2.664429
 80            280           8.193078     -21.13733      8.198142
 90            280           9.713569     -999           9.713569
 0             290          -16.52436     -7.745674     -7.20539 
 10            290          -4.696784     -8.582162     -3.208432
 20            290           .062751      -9.859023      .483848 
 30            290           2.455993     -11.98833      2.609335
 40            290           2.777369     -15.83444      2.836748
 50            290          -.34548       -23.19217     -.32299  
 60            290          -44.54522     -24.44046     -24.39827
 70            290           2.468476     -20.8363       2.48872 
 80            290           7.991291     -23.40651      7.994438
 90            290           9.501641     -999           9.501641
 0             300          -13.22599     -8.454778     -7.20539 
 10            300          -4.056712     -9.621858     -2.99262 
 20            300           .236641      -11.24167      .53514  
 30            300           2.422332     -13.65831      2.528116
 40            300           2.611945     -17.53644      2.653714
 50            300          -.615488      -23.62916     -.593844 
 60            300          -40.43124     -25.38613     -25.2523 
 70            300           2.144021     -23.29987      2.156402
 80            300           7.626153     -26.14212      7.627977
 90            300           9.12482      -999           9.12482 
 0             310          -11.04404     -9.520311     -7.20539 
 10            310          -3.566498     -10.99138     -2.844254
 20            310           .309758      -12.91983      .511457 
 30            310           2.29278      -15.51993      2.364057
 40            310           2.347214     -19.1297       2.378015
 50            310          -.990245      -23.88571     -.968005 
 60            310          -38.03624     -26.70572     -26.39725
 70            310           1.699818     -26.20218      1.706853
 80            310           7.138389     -29.15118      7.139409
 90            310           8.624241     -999           8.624241
 0             320          -9.520311     -11.04404     -7.20539 
 10            320          -3.202451     -12.78092     -2.748467
 20            320           .31083       -14.96418      .437863 
 30            320           2.103234     -17.6091       2.149391
 40            320           2.025179     -20.70731      2.048267
 50            320          -1.422348     -24.49258     -1.400984
 60            320          -36.52111     -28.48045     -27.84707
 70            320           1.189802     -29.46632      1.193534
 80            320           6.584113     -32.09815      6.584701
 90            320           8.056732     -999           8.056732
 0             330          -8.454778     -13.22599     -7.20539 
 10            330          -2.943317     -15.1804      -2.691309
 20            330           .270074      -17.55377      .341169 
 30            330           1.894296     -20.12108      1.921516
 40            330           1.695328     -22.65278      1.711257
 50            330          -1.854371     -25.88624     -1.837242
 60            330          -35.54771     -30.88824     -29.61064
 70            330           .680101      -33.04743      .681941 
 80            330           6.032739     -34.86827      6.033092
 90            330           7.49276      -999           7.49276 
 0             340          -7.745674     -16.52436     -7.20539 
 10            340          -2.771488     -18.63992     -2.660473
 20            340           .216239      -21.13877      .247913 
 30            340           1.707176     -23.56967      1.720043
 40            340           1.409807     -25.64271      1.41836 
 50            340          -2.224194     -28.60865     -2.214221
 60            340          -34.94456     -34.3661      -31.63541
 70            340           .243238      -37.2321       .244014 
 80            340           5.561051     -38.12507      5.561237
 90            340           7.010465     -999           7.010465
 0             350          -7.338361     -22.41199     -7.20539 
 10            350          -2.673811     -24.62652     -2.646197
 20            350           .173261      -27.19429      .181216 
 30            350           1.578079     -29.50625      1.581461
 40            350           1.215935     -31.29772      1.218368
 50            350          -2.474121     -34.15127     -2.47117 
 60            350          -34.61602     -40.36927     -33.59212
 70            350          -.052482      -43.53506     -.052287 
 80            350           5.241943     -43.79438      5.241997
 90            350           6.684198     -999           6.684198
 0             360          -7.20539      -999          -7.20539 
 10            360          -2.642168     -999          -2.642168
 20            360           .157071      -999           .157071 
 30            360           1.532054     -999           1.532054
 40            360           1.14725      -999           1.14725 
 50            360          -2.562519     -999          -2.562519
 60            360          -34.51179     -999          -34.51179
 70            360          -.157192      -999          -.157192 
 80            360           5.128961     -999           5.128961
 90            360           6.568678     -999           6.568678
