                   ****************************************
                     MINI-NUMERICAL ELECTROMAGNETICS CODE
                                   MININEC
                   ****************************************

FREQUENCY (MHZ): 299.8
    WAVE LENGTH =  1  METERS

ENVIRONMENT (+1 FOR FREE SPACE, -1 FOR GROUND PLANE): +1

NO. OF WIRES: 1

ARC  NO. 1
            COORDINATES                                 END         NO. OF
   X             Y             Z          RADIUS     CONNECTION     SEGMENTS
 .159155       0             0                          1
 .159155       0             0             .00674       1             22

                  **** ANTENNA GEOMETRY ****

ARC  NO.  1  COORDINATES                                CONNECTION PULSE
X             Y             Z             RADIUS        END1 END2  NO.
 .152708       0             .044839       .00674        1    1   1
 .13389        0             .086045       .00674        1    1   2
 .104224       0             .120281       .00674        1    1   3
 .066115       0             .144772       .00674        1    1   4
 .02265        0             .157535       .00674        1    1   5
-.02265        0             .157535       .00674        1    1   6
-.066115       0             .144772       .00674        1    1   7
-.104224       0             .120281       .00674        1    1   8
-.13389        0             .086045       .00674        1    1   9
-.152708       0             .044839       .00674        1    1  10
-.159155       0             0             .00674        1    1  11
-.152708       0            -.044839       .00674        1    1  12
-.13389        0            -.086045       .00674        1    1  13
-.104224       0            -.120281       .00674        1    1  14
-.066115       0            -.144772       .00674        1    1  15
-.02265        0            -.157535       .00674        1    1  16
 .02265        0            -.157535       .00674        1    1  17
 .066115       0            -.144772       .00674        1    1  18
 .104224       0            -.120281       .00674        1    1  19
 .13389        0            -.086045       .00674        1    1  20
 .152708       0            -.044839       .00674        1    1  21
 .159155       0             0             .00674        1    1  22

NO. OF SOURCES :  1
PULSE NO., VOLTAGE MAGNITUDE, PHASE (DEGREES): 22 , 1 , 0
NUMBER OF LOADS 0

********************    SOURCE DATA     ********************
PULSE 22      VOLTAGE = ( 1 , 0 J)
              CURRENT = ( 4.918742E-03 ,  4.966882E-03 J)
              IMPEDANCE = ( 100.662  , -101.6472 J)
              POWER =  2.459371E-03  WATTS

********************    CURRENT DATA    ********************

WIRE NO.  1 :
PULSE         REAL          IMAGINARY     MAGNITUDE     PHASE
 NO.          (AMPS)        (AMPS)        (AMPS)        (DEGREES)
J              4.918742E-03  4.966882E-03  6.990275E-03  45.27901 
 1             4.721598E-03  3.410699E-03  5.824633E-03  35.84288 
 2             4.146555E-03  2.337822E-03  4.760182E-03  29.41425 
 3             3.241312E-03  1.258549E-03  3.477075E-03  21.22039 
 4             2.080640E-03  2.012843E-04  2.090353E-03  5.525687 
 5             7.598446E-04 -8.009970E-04  1.104065E-03 -46.51029 
 6            -6.133564E-04 -1.712049E-03  1.818603E-03 -109.7105 
 7            -1.927774E-03 -2.499681E-03  3.156694E-03 -127.6397 
 8            -3.077714E-03 -3.137807E-03  4.395242E-03 -134.4461 
 9            -3.971274E-03 -3.606849E-03  5.364735E-03 -137.7532 
 10           -4.537396E-03 -3.893421E-03  5.978854E-03 -139.368  
 11           -4.731214E-03 -3.989786E-03  6.188924E-03 -139.8594 
 12           -4.537396E-03 -3.893421E-03  5.978854E-03 -139.368  
 13           -3.971274E-03 -3.606849E-03  5.364735E-03 -137.7532 
 14           -3.077714E-03 -3.137807E-03  4.395242E-03 -134.4461 
 15           -1.927774E-03 -2.499681E-03  3.156694E-03 -127.6397 
 16           -6.133564E-04 -1.712049E-03  1.818603E-03 -109.7105 
 17            7.598446E-04 -8.009970E-04  1.104065E-03 -46.51029 
 18            2.080640E-03  2.012843E-04  2.090353E-03  5.525687 
 19            3.241312E-03  1.258549E-03  3.477075E-03  21.22039 
 20            4.146555E-03  2.337822E-03  4.760182E-03  29.41425 
 21            4.721598E-03  3.410699E-03  5.824633E-03  35.84288 
 22            4.918742E-03  4.966882E-03  6.990275E-03  45.27901 
J              4.918742E-03  4.966882E-03  6.990275E-03  45.27901 

********************     FAR FIELD      ********************

ZENITH ANGLE : INITIAL,INCREMENT,NUMBER: 0 , 5 , 37
AZIMUTH ANGLE: INITIAL,INCREMENT,NUMBER: 0 , 5 , 73

********************    PATTERN DATA    ********************
ZENITH        AZIMUTH       VERTICAL      HORIZONTAL    TOTAL
 ANGLE         ANGLE        PATTERN (DB)  PATTERN (DB)  PATTERN (DB)
 0             0            -12.96711     -999          -12.96711
 5             0            -10.52755     -999          -10.52755
 10            0            -8.575152     -999          -8.575152
 15            0            -6.997703     -999          -6.997703
 20            0            -5.70204      -999          -5.70204 
 25            0            -4.622945     -999          -4.622945
 30            0            -3.715126     -999          -3.715126
 35            0            -2.946418     -999          -2.946418
 40            0            -2.293362     -999          -2.293362
 45            0            -1.738422     -999          -1.738422
 50            0            -1.268223     -999          -1.268223
 55            0            -.872413      -999          -.872413 
 60            0            -.54291       -999          -.54291  
 65            0            -.273386      -999          -.273386 
 70            0            -.058918      -999          -.058918 
 75            0             .104257      -999           .104257 
 80            0             .218917      -999           .218917 
 85            0             .28697       -999           .28697  
 90            0             .309532      -999           .309532 
 95            0             .28697       -999           .28697  
 100           0             .218917      -999           .218917 
 105           0             .104257      -999           .104257 
 110           0            -.058918      -999          -.058918 
 115           0            -.273386      -999          -.273386 
 120           0            -.54291       -999          -.54291  
 125           0            -.872413      -999          -.872413 
 130           0            -1.268223     -999          -1.268223
 135           0            -1.738422     -999          -1.738422
 140           0            -2.293362     -999          -2.293362
 145           0            -2.946418     -999          -2.946418
 150           0            -3.715126     -999          -3.715126
 155           0            -4.622945     -999          -4.622945
 160           0            -5.70204      -999          -5.70204 
 165           0            -6.997703     -999          -6.997703
 170           0            -8.575152     -999          -8.575152
 175           0            -10.52755     -999          -10.52755
 180           0            -12.96711     -999          -12.96711
 0             5            -13.00023     -34.16119     -12.96711
 5             5            -10.54611     -35.16842     -10.53115
 10            5            -8.584053     -36.28321     -8.576682
 15            5            -6.999886     -37.47095     -6.995992
 20            5            -5.699198     -38.67172     -5.697008
 25            5            -4.616092     -39.79772     -4.614775
 30            5            -3.704906     -40.75035     -3.704049
 35            5            -2.93327      -41.46471     -2.932661
 40            5            -2.277608     -41.95468     -2.27714 
 45            5            -1.72032      -42.31219     -1.719941
 50            5            -1.248001     -42.66329     -1.247687
 55            5            -.85029       -43.12826     -.850033 
 60            5            -.519105      -43.81156     -.518902 
 65            5            -.248128      -44.81516     -.247976 
 70            5            -.032447      -46.26814     -.032344 
 75            5             .131688      -48.38566      .131749 
 80            5             .247043      -51.63405      .247071 
 85            5             .315517      -57.4904       .315524 
 90            5             .338219      -999           .338219 
 95            5             .315517      -57.4904       .315524 
 100           5             .247043      -51.63405      .247071 
 105           5             .131688      -48.38566      .131749 
 110           5            -.032447      -46.26814     -.032344 
 115           5            -.248128      -44.81516     -.247976 
 120           5            -.519105      -43.81156     -.518902 
 125           5            -.85029       -43.12826     -.850033 
 130           5            -1.248001     -42.66329     -1.247687
 135           5            -1.72032      -42.31219     -1.719941
 140           5            -2.277608     -41.95468     -2.27714 
 145           5            -2.93327      -41.46471     -2.932661
 150           5            -3.704906     -40.75035     -3.704049
 155           5            -4.616092     -39.79772     -4.614775
 160           5            -5.699198     -38.67172     -5.697008
 165           5            -6.999886     -37.47095     -6.995992
 170           5            -8.584053     -36.28321     -8.576682
 175           5            -10.54611     -35.16842     -10.53115
 180           5            -13.00023     -34.16119     -12.96711
 0             10           -13.10008     -28.17371     -12.96711
 5             10           -10.60197     -29.16927     -10.54198
 10            10           -8.61093      -30.27113     -8.581398
 15            10           -7.006676     -31.44609     -6.991079
 20            10           -5.691005     -32.63717     -5.68224 
 25            10           -4.595969     -33.76112     -4.590709
 30            10           -3.674788     -34.72376     -3.671378
 35            10           -2.894467     -35.46071     -2.892062
 40            10           -2.23108      -35.98058     -2.229249
 45            10           -1.66684      -36.36783     -1.665369
 50            10           -1.18825      -36.74352     -1.187041
 55            10           -.784916      -37.22661     -.783931 
 60            10           -.448761      -37.92238     -.447984 
 65            10           -.173489      -38.93423     -.172912 
 70            10            .045773      -40.39249      .046166 
 75            10            .212743      -42.5133       .212974 
 80            10            .330149      -45.76365      .330256 
 85            10            .399866      -51.62102      .399893 
 90            10            .422985      -999           .422985 
 95            10            .399866      -51.62102      .399893 
 100           10            .330149      -45.76365      .330256 
 105           10            .212743      -42.5133       .212974 
 110           10            .045773      -40.39249      .046166 
 115           10           -.173489      -38.93423     -.172912 
 120           10           -.448761      -37.92238     -.447984 
 125           10           -.784916      -37.22661     -.783931 
 130           10           -1.18825      -36.74352     -1.187041
 135           10           -1.66684      -36.36783     -1.665369
 140           10           -2.23108      -35.98058     -2.229249
 145           10           -2.894467     -35.46071     -2.892062
 150           10           -3.674788     -34.72376     -3.671378
 155           10           -4.595969     -33.76112     -4.590709
 160           10           -5.691005     -32.63717     -5.68224 
 165           10           -7.006676     -31.44609     -6.991079
 170           10           -8.61093      -30.27113     -8.581398
 175           10           -10.60197     -29.16927     -10.54198
 180           10           -13.10008     -28.17371     -12.96711
 0             15           -13.26824     -24.70719     -12.96711
 5             15           -10.69577     -25.68343     -10.56018
 10            15           -8.656305     -26.76389     -8.589672
 15            15           -7.018789     -27.91758     -6.983621
 20            15           -5.678457     -29.09215     -5.658713
 25            15           -4.563871     -30.21149     -4.552056
 30            15           -3.626362     -31.18858     -3.618755
 35            15           -2.831887     -31.9606      -2.826582
 40            15           -2.155937     -32.52861     -2.151953
 45            15           -1.580408     -32.9652      -1.577252
 50            15           -1.091647     -33.38279     -1.089086
 55            15           -.679205      -33.89751     -.677135 
 60            15           -.335004      -34.61548     -.333384 
 65            15           -.052788      -35.64226     -.051589 
 70            15            .172265      -37.11028      .173077 
 75            15            .343813      -39.23726      .344291 
 80            15            .464533      -42.49132      .464753 
 85            15            .536256      -48.35066      .536312 
 90            15            .560047      -999           .560047 
 95            15            .536256      -48.35066      .536312 
 100           15            .464533      -42.49132      .464753 
 105           15            .343813      -39.23726      .344291 
 110           15            .172265      -37.11028      .173077 
 115           15           -.052788      -35.64226     -.051589 
 120           15           -.335004      -34.61548     -.333384 
 125           15           -.679205      -33.89751     -.677135 
 130           15           -1.091647     -33.38279     -1.089086
 135           15           -1.580408     -32.9652      -1.577252
 140           15           -2.155937     -32.52861     -2.151953
 145           15           -2.831887     -31.9606      -2.826582
 150           15           -3.626362     -31.18858     -3.618755
 155           15           -4.563871     -30.21149     -4.552056
 160           15           -5.678457     -29.09215     -5.658713
 165           15           -7.018789     -27.91758     -6.983621
 170           15           -8.656305     -26.76389     -8.589672
 175           15           -10.69577     -25.68343     -10.56018
 180           15           -13.26824     -24.70719     -12.96711
 0             20           -13.5074      -22.28608     -12.96711
 5             20           -10.82856     -23.23552     -10.58595
 10            20           -8.721047     -24.28632     -8.602116
 15            20           -7.037397     -25.41036     -6.974685
 20            20           -5.663169     -26.56112     -5.627995
 25            20           -4.521886     -27.67167     -4.500909
 30            20           -3.562185     -28.66459     -3.548792
 35            20           -2.748543     -29.48025     -2.739335
 40            20           -2.055628     -30.11163     -2.048839
 45            20           -1.46489      -30.61618     -1.459613
 50            20           -.962453      -31.0939      -.958241 
 55            20           -.53778       -31.6556      -.534424 
 60            20           -.182792      -32.40758     -.180191 
 65            20            .108725      -33.45783      .110635 
 70            20            .341527      -34.94153      .342813 
 75            20            .519197      -37.07866      .519952 
 80            20            .644345      -40.33894      .644691 
 85            20            .718748      -46.20163      .718836 
 90            20            .743436      -999           .743436 
 95            20            .718748      -46.20163      .718836 
 100           20            .644345      -40.33894      .644691 
 105           20            .519197      -37.07866      .519952 
 110           20            .341527      -34.94153      .342813 
 115           20            .108725      -33.45783      .110635 
 120           20           -.182792      -32.40758     -.180191 
 125           20           -.53778       -31.6556      -.534424 
 130           20           -.962453      -31.0939      -.958241 
 135           20           -1.46489      -30.61618     -1.459613
 140           20           -2.055628     -30.11163     -2.048839
 145           20           -2.748543     -29.48025     -2.739335
 150           20           -3.562185     -28.66459     -3.548792
 155           20           -4.521886     -27.67167     -4.500909
 160           20           -5.663169     -26.56112     -5.627995
 165           20           -7.037397     -25.41036     -6.974685
 170           20           -8.721047     -24.28632     -8.602116
 175           20           -10.82856     -23.23552     -10.58595
 180           20           -13.5074      -22.28608     -12.96711
 0             25           -13.8216      -20.44815     -12.96711
 5             25           -11.00184     -21.36356     -10.61958
 10            25           -8.806359     -22.37674     -8.619561
 15            25           -7.064099     -23.46287     -6.965703
 20            25           -5.647323     -24.58208     -5.592173
 25            25           -4.472808     -25.67778     -4.440025
 30            25           -3.485655     -26.68398     -3.46491 
 35            25           -2.648415     -27.54654     -2.634378
 40            25           -1.93469      -28.25158     -1.924561
 45            25           -1.325351     -28.84016     -1.317661
 50            25           -.806229      -29.39634     -.800224 
 55            25           -.366666      -30.02229     -.361968 
 60            25            .001432      -30.82266      .005023 
 65            25            .304237      -31.90749      .306847 
 70            25            .546432      -33.41499      .548176 
 75            25            .731517      -35.56791      .732535 
 80            25            .862024      -38.8381       .86249  
 85            25            .939669      -44.70619      .939787 
 90            25            .965442      -999           .965442 
 95            25            .939669      -44.70619      .939787 
 100           25            .862024      -38.8381       .86249  
 105           25            .731517      -35.56791      .732535 
 110           25            .546432      -33.41499      .548176 
 115           25            .304237      -31.90749      .306847 
 120           25            .001432      -30.82266      .005023 
 125           25           -.366666      -30.02229     -.361968 
 130           25           -.806229      -29.39634     -.800224 
 135           25           -1.325351     -28.84016     -1.317661
 140           25           -1.93469      -28.25158     -1.924561
 145           25           -2.648415     -27.54654     -2.634378
 150           25           -3.485655     -26.68398     -3.46491 
 155           25           -4.472808     -25.67778     -4.440025
 160           25           -5.647323     -24.58208     -5.592173
 165           25           -7.064099     -23.46287     -6.965703
 170           25           -8.806359     -22.37674     -8.619561
 175           25           -11.00184     -21.36356     -10.61958
 180           25           -13.8216      -20.44815     -12.96711
 0             30           -14.2165      -18.98771     -12.96711
 5             30           -11.21762     -19.86217     -10.66143
 10            30           -8.913771     -20.83017     -8.643041
 15            30           -7.100883     -21.87042     -6.958424
 20            30           -5.633584     -22.94991     -5.553756
 25            30           -4.420015     -24.02285     -4.372686
 30            30           -3.400844     -25.03566     -3.37114 
 35            30           -2.536241     -25.94193     -2.516461
 40            30           -1.798496     -26.7239      -1.784546
 45            30           -1.167763     -27.40736     -1.157452
 50            30           -.629509      -28.05831     -.621666 
 55            30           -.172916      -28.7666      -.166917 
 60            30            .210148      -29.63221      .214649 
 65            30            .525816      -30.76567      .52904  
 70            30            .778698      -32.30785      .780831 
 75            30            .97221       -34.48447      .973446 
 80            30            1.108804     -37.76984      1.109366
 85            30            1.190128     -43.64637      1.190271
 90            30            1.217133     -298.8274      1.217133
 95            30            1.190128     -43.64637      1.190271
 100           30            1.108804     -37.76984      1.109366
 105           30            .97221       -34.48447      .973446 
 110           30            .778698      -32.30785      .780831 
 115           30            .525816      -30.76567      .52904  
 120           30            .210148      -29.63221      .214649 
 125           30           -.172916      -28.7666      -.166917 
 130           30           -.629509      -28.05831     -.621666 
 135           30           -1.167763     -27.40736     -1.157452
 140           30           -1.798496     -26.7239      -1.784546
 145           30           -2.536241     -25.94193     -2.516461
 150           30           -3.400844     -25.03566     -3.37114 
 155           30           -4.420015     -24.02285     -4.372686
 160           30           -5.633584     -22.94991     -5.553756
 165           30           -7.100883     -21.87042     -6.958424
 170           30           -8.913771     -20.83017     -8.643041
 175           30           -11.21762     -19.86217     -10.66143
 180           30           -14.2165      -18.98771     -12.96711
 0             35           -14.69982     -17.79529     -12.96711
 5             35           -11.47842     -18.62224     -10.71192
 10            35           -9.045129     -19.53798     -8.673766
 15            35           -7.150076     -20.52473     -6.954858
 20            35           -5.625017     -21.55618     -5.515575
 25            35           -4.367338     -22.59692     -4.302537
 30            35           -3.312325     -23.60584     -3.271922
 35            35           -2.417296     -24.54595     -2.390775
 40            35           -1.652985     -25.39936     -1.634694
 45            35           -.998695      -26.18007     -.985543 
 50            35           -.439447      -26.93643     -.429728 
 55            35            .03578       -27.74304      .043017 
 60            35            .435178      -28.69147      .440485 
 65            35            .764858      -29.88989      .768591 
 70            35            1.029363     -31.48038      1.031799
 75            35            1.232029     -33.69116      1.233427
 80            35            1.375228     -36.999        1.375859
 85            35            1.460543     -42.88823      1.460702
 90            35            1.488883     -297.795       1.488883
 95            35            1.460543     -42.88823      1.460702
 100           35            1.375228     -36.999        1.375859
 105           35            1.232029     -33.69116      1.233427
 110           35            1.029363     -31.48038      1.031799
 115           35            .764858      -29.88989      .768591 
 120           35            .435178      -28.69147      .440485 
 125           35            .03578       -27.74304      .043017 
 130           35           -.439447      -26.93643     -.429728 
 135           35           -.998695      -26.18007     -.985543 
 140           35           -1.652985     -25.39936     -1.634694
 145           35           -2.417296     -24.54595     -2.390775
 150           35           -3.312325     -23.60584     -3.271922
 155           35           -4.367338     -22.59692     -4.302537
 160           35           -5.625017     -21.55618     -5.515575
 165           35           -7.150076     -20.52473     -6.954858
 170           35           -9.045129     -19.53798     -8.673766
 175           35           -11.47842     -18.62224     -10.71192
 180           35           -14.69982     -17.79529     -12.96711
 0             40           -15.28203     -16.80576     -12.96711
 5             40           -11.78738     -17.57909     -10.77153
 10            40           -9.20258      -18.43605     -8.713102
 15            40           -7.214294     -19.3622      -6.95721 
 20            40           -5.624987     -20.33739     -5.480673
 25            40           -4.318916     -21.3356      -4.233442
 30            40           -3.224979     -22.32728     -3.171903
 35            40           -2.297165     -23.28551     -2.262712
 40            40           -1.504403     -24.19562     -1.481095
 45            40           -.825008      -25.06477     -.808678 
 50            40           -.243477      -25.92679     -.231759 
 55            40            .251462      -26.84054      .259938 
 60            40            .668091      -27.8859       .674146 
 65            40            1.012518     -29.16513      1.016685
 70            40            1.289235     -30.81878      1.291907
 75            40            1.501504     -33.07597      1.503017
 80            40            1.651623     -36.41524      1.652301
 85            40            1.741118     -42.32258      1.741288
 90            40            1.770855     -296.5209      1.770855
 95            40            1.741118     -42.32258      1.741288
 100           40            1.651623     -36.41524      1.652301
 105           40            1.501504     -33.07597      1.503017
 110           40            1.289235     -30.81878      1.291907
 115           40            1.012518     -29.16513      1.016685
 120           40            .668091      -27.8859       .674146 
 125           40            .251462      -26.84054      .259938 
 130           40           -.243477      -25.92679     -.231759 
 135           40           -.825008      -25.06477     -.808678 
 140           40           -1.504403     -24.19562     -1.481095
 145           40           -2.297165     -23.28551     -2.262712
 150           40           -3.224979     -22.32728     -3.171903
 155           40           -4.318916     -21.3356      -4.233442
 160           40           -5.624987     -20.33739     -5.480673
 165           40           -7.214294     -19.3622      -6.95721 
 170           40           -9.20258      -18.43605     -8.713102
 175           40           -11.78738     -17.57909     -10.77153
 180           40           -15.28203     -16.80576     -12.96711
 0             45           -15.97741     -15.97741     -12.96711
 5             45           -12.14832     -16.69147     -10.84078
 10            45           -9.388555     -17.48377     -8.762539
 15            45           -7.296381     -18.34291     -6.967831
 20            45           -5.637064     -19.25408     -5.452219
 25            45           -4.279065     -20.19928     -4.16935 
 30            45           -3.143829     -21.15892     -3.075773
 35            45           -2.181533     -22.11559     -2.137662
 40            45           -1.359055     -23.05993     -1.329798
 45            45           -.653586      -23.99699     -.633521 
 50            45           -.049019      -24.95111     -.034995 
 55            45            .46622       -25.96774      .47608  
 60            45            .900538      -27.11418      .907392 
 65            45            1.260065     -28.48373      1.26467 
 70            45            1.549261     -30.21215      1.552155
 75            45            1.771326     -32.52684      1.77294 
 80            45            1.928499     -35.90639      1.929214
 85            45            2.022248     -41.83745      2.022427
 90            45            2.053408     -295.7985      2.053408
 95            45            2.022248     -41.83745      2.022427
 100           45            1.928499     -35.90639      1.929214
 105           45            1.771326     -32.52684      1.77294 
 110           45            1.549261     -30.21215      1.552155
 115           45            1.260065     -28.48373      1.26467 
 120           45            .900538      -27.11418      .907392 
 125           45            .46622       -25.96774      .47608  
 130           45           -.049019      -24.95111     -.034995 
 135           45           -.653586      -23.99699     -.633521 
 140           45           -1.359055     -23.05993     -1.329798
 145           45           -2.181533     -22.11559     -2.137662
 150           45           -3.143829     -21.15892     -3.075773
 155           45           -4.279065     -20.19928     -4.16935 
 160           45           -5.637064     -19.25408     -5.452219
 165           45           -7.296381     -18.34291     -6.967831
 170           45           -9.388555     -17.48377     -8.762539
 175           45           -12.14832     -16.69147     -10.84078
 180           45           -15.97741     -15.97741     -12.96711
 0             50           -16.80576     -15.28203     -12.96711
 5             50           -12.56583     -15.93171     -10.92024
 10            50           -9.605752     -16.65417     -8.82367 
 15            50           -7.399349     -17.44066     -6.989162
 20            50           -5.664924     -18.28089     -5.433418
 25            50           -4.252142     -19.16326     -4.114181
 30            50           -3.073877     -20.07619     -2.988122
 35            50           -2.076003     -21.01034     -2.020847
 40            50           -1.223103     -21.96214     -1.186623
 45            50           -.491112      -22.93775     -.466458 
 50            50            .136762      -23.95689      .15365  
 55            50            .672452      -25.056        .684049 
 60            50            1.124527     -26.29165      1.132393
 65            50            1.499169     -27.74748      1.504331
 70            50            1.800824     -29.55209      1.804003
 75            50            2.032654     -31.92847      2.034398
 80            50            2.196847     -35.35291      2.197611
 85            50            2.294829     -41.31109      2.295018
 90            50            2.327403     -294.9817      2.327403
 95            50            2.294829     -41.31109      2.295018
 100           50            2.196847     -35.35291      2.197611
 105           50            2.032654     -31.92847      2.034398
 110           50            1.800824     -29.55209      1.804003
 115           50            1.499169     -27.74748      1.504331
 120           50            1.124527     -26.29165      1.132393
 125           50            .672452      -25.056        .684049 
 130           50            .136762      -23.95689      .15365  
 135           50           -.491112      -22.93775     -.466458 
 140           50           -1.223103     -21.96214     -1.186623
 145           50           -2.076003     -21.01034     -2.020847
 150           50           -3.073877     -20.07619     -2.988122
 155           50           -4.252142     -19.16326     -4.114181
 160           50           -5.664924     -18.28089     -5.433418
 165           50           -7.399349     -17.44066     -6.989162
 170           50           -9.605752     -16.65417     -8.82367 
 175           50           -12.56583     -15.93171     -10.92024
 180           50           -16.80576     -15.28203     -12.96711
 0             55           -17.79529     -14.69982     -12.96711
 5             55           -13.04546     -15.28057     -11.01049
 10            55           -9.857111     -15.92875     -8.898172
 15            55           -7.526322     -16.63793     -7.02369 
 20            55           -5.712262     -17.40136     -5.427451
 25            55           -4.242437     -18.21244     -4.071741
 30            55           -3.019972     -19.06556     -2.913341
 35            55           -1.985943     -19.95765     -1.917209
 40            55           -1.102401     -20.89019     -1.057035
 45            55           -.343891      -21.87175     -.313448 
 50            55            .307149      -22.92082      .327754 
 55            55            .863063      -24.06905      .876991 
 60            55            1.332626     -25.36586      1.341904
 65            55            1.722103     -26.88694      1.728081
 70            55            2.035955     -28.75368      2.039574
 75            55            2.277324     -31.18338      2.279281
 80            55            2.448364     -34.64832      2.449211
 85            55            2.550469     -40.63168      2.550678
 90            55            2.584421     -294.3702      2.584421
 95            55            2.550469     -40.63168      2.550678
 100           55            2.448364     -34.64832      2.449211
 105           55            2.277324     -31.18338      2.279281
 110           55            2.035955     -28.75368      2.039574
 115           55            1.722103     -26.88694      1.728081
 120           55            1.332626     -25.36586      1.341904
 125           55            .863063      -24.06905      .876991 
 130           55            .307149      -22.92082      .327754 
 135           55           -.343891      -21.87175     -.313448 
 140           55           -1.102401     -20.89019     -1.057035
 145           55           -1.985943     -19.95765     -1.917209
 150           55           -3.019972     -19.06556     -2.913341
 155           55           -4.242437     -18.21244     -4.071741
 160           55           -5.712262     -17.40136     -5.427451
 165           55           -7.526322     -16.63793     -7.02369 
 170           55           -9.857111     -15.92875     -8.898172
 175           55           -13.04546     -15.28057     -11.01049
 180           55           -17.79529     -14.69982     -12.96711
 0             60           -18.98771     -14.2165      -12.96711
 5             60           -13.59382     -14.72438     -11.11212
 10            60           -10.14579     -15.29465     -8.987783
 15            60           -7.680475     -15.92282     -7.073921
 20            60           -5.782707     -16.60495     -5.437419
 25            60           -4.254069     -17.3381      -4.045659
 30            60           -2.986697     -18.12099     -2.855544
 35            60           -1.916371     -18.95496     -1.831323
 40            60           -1.002369     -19.84534     -.946048 
 45            60           -.217715      -20.80314     -.179927 
 50            60            .456003      -21.84719      .481482 
 55            60            1.031599     -23.00722      1.048701
 60            60            1.5181       -24.32879      1.529386
 65            60            1.921888     -25.88255      1.929082
 70            60            2.24747      -27.78452      2.251779
 75            60            2.497991     -30.24702      2.500298
 80            60            2.675588     -33.7383       2.67658 
 85            60            2.781638     -39.73863      2.781881
 90            60            2.816906     -293.8605      2.816906
 95            60            2.781638     -39.73863      2.781881
 100           60            2.675588     -33.7383       2.67658 
 105           60            2.497991     -30.24702      2.500298
 110           60            2.24747      -27.78452      2.251779
 115           60            1.921888     -25.88255      1.929082
 120           60            1.5181       -24.32879      1.529386
 125           60            1.031599     -23.00722      1.048701
 130           60            .456003      -21.84719      .481482 
 135           60           -.217715      -20.80314     -.179927 
 140           60           -1.002369     -19.84534     -.946048 
 145           60           -1.916371     -18.95496     -1.831323
 150           60           -2.986697     -18.12099     -2.855544
 155           60           -4.254069     -17.3381      -4.045659
 160           60           -5.782707     -16.60495     -5.437419
 165           60           -7.680475     -15.92282     -7.073921
 170           60           -10.14579     -15.29465     -8.987783
 175           60           -13.59382     -14.72438     -11.11212
 180           60           -18.98771     -14.2165      -12.96711
 0             65           -20.44815     -13.8216      -12.96711
 5             65           -14.21882     -14.25329     -11.22572
 10            65           -10.47513     -14.74284     -9.094291
 15            65           -7.864968     -15.28738     -7.142347
 20            65           -5.879753     -15.88515     -5.466316
 25            65           -4.29091      -16.53587     -4.039346
 30            65           -2.978288     -17.24123     -2.818525
 35            65           -1.871863     -18.00564     -1.76735 
 40            65           -.927903      -18.83709     -.85818  
 45            65           -.117781      -19.74849     -.070753 
 50            65            .577849      -20.75952      .609651 
 55            65            1.172334     -21.89947      1.193691
 60            65            1.674997     -23.21224      1.689069
 65            65            2.092378     -24.76597      2.101321
 70            65            2.429058     -26.67362      2.434394
 75            65            2.688212     -29.14441      2.691059
 80            65            2.871983     -32.6438       2.873202
 85            65            2.981741     -38.64991      2.982039
 90            65            3.018246     -293.4627      3.018246
 95            65            2.981741     -38.64991      2.982039
 100           65            2.871983     -32.6438       2.873202
 105           65            2.688212     -29.14441      2.691059
 110           65            2.429058     -26.67362      2.434394
 115           65            2.092378     -24.76597      2.101321
 120           65            1.674997     -23.21224      1.689069
 125           65            1.172334     -21.89947      1.193691
 130           65            .577849      -20.75952      .609651 
 135           65           -.117781      -19.74849     -.070753 
 140           65           -.927903      -18.83709     -.85818  
 145           65           -1.871863     -18.00564     -1.76735 
 150           65           -2.978288     -17.24123     -2.818525
 155           65           -4.29091      -16.53587     -4.039346
 160           65           -5.879753     -15.88515     -5.466316
 165           65           -7.864968     -15.28738     -7.142347
 170           65           -10.47513     -14.74284     -9.094291
 175           65           -14.21882     -14.25329     -11.22572
 180           65           -20.44815     -13.8216      -12.96711
 0             70           -22.28608     -13.5074      -12.96711
 5             70           -14.92981     -13.86022     -11.35187
 10            70           -10.84859     -14.26707     -9.219521
 15            70           -8.082892     -14.72644     -7.231438
 20            70           -6.006685     -15.23825     -5.517004
 25            70           -4.356512     -15.80417     -4.055971
 30            70           -2.998561     -16.42799     -2.805735
 35            70           -1.856488     -17.11615     -1.729012
 40            70           -.883314      -17.87848     -.79742  
 45            70           -.048627      -18.72933      .009822 
 50            70            .667937      -19.68922      .707755 
 55            70            1.280323     -20.78767      1.307216
 60            70            1.798197     -22.06819      1.81599 
 65            70            2.228298     -23.59797      2.239637
 70            70            2.575318     -25.48874      2.582095
 75            70            2.842486     -27.94831      2.846105
 80            70            3.031973     -31.44081      3.033524
 85            70            3.145159     -37.44325      3.145538
 90            70            3.182806     -293.135       3.182806
 95            70            3.145159     -37.44325      3.145538
 100           70            3.031973     -31.44081      3.033524
 105           70            2.842486     -27.94831      2.846105
 110           70            2.575318     -25.48874      2.582095
 115           70            2.228298     -23.59797      2.239637
 120           70            1.798197     -22.06819      1.81599 
 125           70            1.280323     -20.78767      1.307216
 130           70            .667937      -19.68922      .707755 
 135           70           -.048627      -18.72933      .009822 
 140           70           -.883314      -17.87848     -.79742  
 145           70           -1.856488     -17.11615     -1.729012
 150           70           -2.998561     -16.42799     -2.805735
 155           70           -4.356512     -15.80417     -4.055971
 160           70           -6.006685     -15.23825     -5.517004
 165           70           -8.082892     -14.72644     -7.231438
 170           70           -10.84859     -14.26707     -9.219521
 175           70           -14.92981     -13.86022     -11.35187
 180           70           -22.28608     -13.5074      -12.96711
 0             75           -24.70719     -13.26824     -12.96711
 5             75           -15.73769     -13.54018     -11.4911 
 10            75           -11.26966     -13.86317     -9.36533 
 15            75           -8.337192     -14.23686     -7.343635
 20            75           -6.16652      -14.66254     -5.592205
 25            75           -4.45405      -15.14332     -4.098454
 30            75           -3.050861     -15.6845      -2.820272
 35            75           -1.873763     -16.29397     -1.719582
 40            75           -.872286      -16.98287     -.76722  
 45            75           -.014099      -17.76663      .058163 
 50            75            .722271      -18.66656      .771978 
 55            75            1.351427     -19.71267      1.385286
 60            75            1.883434     -20.94866      1.905999
 65            75            2.325272     -22.44165      2.339739
 70            75            2.681779     -24.3031       2.690465
 75            75            2.956268     -26.74044      2.960922
 80            75            3.150959     -30.21742      3.152958
 85            75            3.267258     -36.21071      3.267748
 90            75            3.305942     -292.8047      3.305942
 95            75            3.267258     -36.21071      3.267748
 100           75            3.150959     -30.21742      3.152958
 105           75            2.956268     -26.74044      2.960922
 110           75            2.681779     -24.3031       2.690465
 115           75            2.325272     -22.44165      2.339739
 120           75            1.883434     -20.94866      1.905999
 125           75            1.351427     -19.71267      1.385286
 130           75            .722271      -18.66656      .771978 
 135           75           -.014099      -17.76663      .058163 
 140           75           -.872286      -16.98287     -.76722  
 145           75           -1.873763     -16.29397     -1.719582
 150           75           -3.050861     -15.6845      -2.820272
 155           75           -4.45405      -15.14332     -4.098454
 160           75           -6.16652      -14.66254     -5.592205
 165           75           -8.337192     -14.23686     -7.343635
 170           75           -11.26966     -13.86317     -9.36533 
 175           75           -15.73769     -13.54018     -11.4911 
 180           75           -24.70719     -13.26824     -12.96711
 0             80           -28.17371     -13.10008     -12.96711
 5             80           -16.6547      -13.28979     -11.64389
 10            80           -11.74175     -13.52855     -9.533602
 15            80           -8.630587     -13.81706     -7.481352
 20            80           -6.361943     -14.1577      -5.694507
 25            80           -4.58627      -14.55475     -4.169468
 30            80           -3.138023     -15.01465     -2.864878
 35            80           -1.926618     -15.54637     -1.741887
 40            80           -.897848      -16.16204     -.770503 
 45            80           -.017325      -16.87793      .071245 
 50            80            .737624      -17.71607      .799189 
 55            80            1.382327     -18.70699      1.424666
 60            80            1.927304     -19.89479      1.955759
 65            80            2.379822     -21.34685      2.398196
 70            80            2.744898     -23.17475      2.755996
 75            80            3.025963     -25.58601      3.031938
 80            80            3.22531      -29.04437      3.227884
 85            80            3.344387     -35.02651      3.345019
 90            80            3.383995     -292.7262      3.383995
 95            80            3.344387     -35.02651      3.345019
 100           80            3.22531      -29.04437      3.227884
 105           80            3.025963     -25.58601      3.031938
 110           80            2.744898     -23.17475      2.755996
 115           80            2.379822     -21.34685      2.398196
 120           80            1.927304     -19.89479      1.955759
 125           80            1.382327     -18.70699      1.424666
 130           80            .737624      -17.71607      .799189 
 135           80           -.017325      -16.87793      .071245 
 140           80           -.897848      -16.16204     -.770503 
 145           80           -1.926618     -15.54637     -1.741887
 150           80           -3.138023     -15.01465     -2.864878
 155           80           -4.58627      -14.55475     -4.169468
 160           80           -6.361943     -14.1577      -5.694507
 165           80           -8.630587     -13.81706     -7.481352
 170           80           -11.74175     -13.52855     -9.533602
 175           80           -16.6547      -13.28979     -11.64389
 180           80           -28.17371     -13.10008     -12.96711
 0             85           -34.16119     -13.00023     -12.96711
 5             85           -17.69329     -13.107       -11.81064
 10            85           -12.26792     -13.26194     -9.72625 
 15            85           -8.965473     -13.46664     -7.646985
 20            85           -6.595238     -13.72447     -5.826371
 25            85           -4.755439     -14.04063     -4.271444
 30            85           -3.262325     -14.42247     -2.941955
 35            85           -2.017362     -14.87981     -1.798313
 40            85           -.96235       -15.42553     -.80966  
 45            85           -.060701      -16.07658      .046652 
 50            85            .711549      -16.85554      .786937 
 55            85            1.37053      -17.79341      1.422862
 60            85            1.927269     -18.93466      1.962735
 65            85            2.389365     -20.34695      2.412432
 70            85            2.762058     -22.14209      2.776076
 75            85            3.048927     -24.52773      3.056508
 80            85            3.252359     -27.96773      3.255637
 85            85            3.373866     -33.93882      3.374672
 90            85            3.414279     -292.6496      3.414279
 95            85            3.373866     -33.93882      3.374672
 100           85            3.252359     -27.96773      3.255637
 105           85            3.048927     -24.52773      3.056508
 110           85            2.762058     -22.14209      2.776076
 115           85            2.389365     -20.34695      2.412432
 120           85            1.927269     -18.93466      1.962735
 125           85            1.37053      -17.79341      1.422862
 130           85            .711549      -16.85554      .786937 
 135           85           -.060701      -16.07658      .046652 
 140           85           -.96235       -15.42553     -.80966  
 145           85           -2.017362     -14.87981     -1.798313
 150           85           -3.262325     -14.42247     -2.941955
 155           85           -4.755439     -14.04063     -4.271444
 160           85           -6.595238     -13.72447     -5.826371
 165           85           -8.965473     -13.46664     -7.646985
 170           85           -12.26792     -13.26194     -9.72625 
 175           85           -17.69329     -13.107       -11.81064
 180           85           -34.16119     -13.00023     -12.96711
 0             90           -999          -12.96711     -12.96711
 5             90           -18.86264     -12.99091     -11.99163
 10            90           -12.8505      -13.06313     -9.945216
 15            90           -9.34378      -13.18623     -7.842928
 20            90           -6.868206     -13.36438     -5.990145
 25            90           -4.963283     -13.60359     -4.406582
 30            90           -3.425451     -13.91191     -3.053564
 35            90           -2.147654     -14.29982     -1.890814
 40            90           -1.06744      -14.78077     -.886566 
 45            90           -.145877      -15.37217     -.017431 
 50            90            .642395      -16.09699      .733446 
 55            90            1.314373     -16.98657      1.378126
 60            90            1.881654     -18.0856       1.925193
 65            90            2.352218     -19.46193      2.380724
 70            90            2.731565     -21.22749      2.748984
 75            90            3.023454     -23.59007      3.032916
 80            90            3.230395     -27.01355      3.234499
 85            90            3.353978     -32.97471      3.354989
 90            90            3.395079     -292.5707      3.395079
 95            90            3.353978     -32.97471      3.354989
 100           90            3.230395     -27.01355      3.234499
 105           90            3.023454     -23.59007      3.032916
 110           90            2.731565     -21.22749      2.748984
 115           90            2.352218     -19.46193      2.380724
 120           90            1.881654     -18.0856       1.925193
 125           90            1.314373     -16.98657      1.378126
 130           90            .642395      -16.09699      .733446 
 135           90           -.145877      -15.37217     -.017431 
 140           90           -1.06744      -14.78077     -.886566 
 145           90           -2.147654     -14.29982     -1.890814
 150           90           -3.425451     -13.91191     -3.053564
 155           90           -4.963283     -13.60359     -4.406582
 160           90           -6.868206     -13.36438     -5.990145
 165           90           -9.34378      -13.18623     -7.842928
 170           90           -12.8505      -13.06313     -9.945216
 175           90           -18.86264     -12.99091     -11.99163
 180           90           -999          -12.96711     -12.96711
 0             95           -34.16119     -13.00023     -12.96711
 5             95           -20.15922     -12.94166     -12.187  
 10            95           -13.49049     -12.93293     -10.19247
 15            95           -9.766791     -12.9773      -8.071593
 20            95           -7.182063     -13.07964     -6.188077
 25            95           -5.210922     -13.2466      -4.576866
 30            95           -3.628436     -13.4868      -3.20144 
 35            95           -2.318461     -13.81114     -2.020915
 40            95           -1.214035     -14.23345     -1.002575
 45            95           -.273725      -14.77141     -.122223 
 50            95            .529318      -15.44822      .637612 
 55            95            1.21304      -16.29531      1.289445
 60            95            1.789662     -17.35749      1.842196
 65            95            2.267599     -18.70264      2.302195
 70            95            2.65265      -20.44272      2.673891
 75            95            2.948786     -22.78548      2.960368
 80            95            3.158665     -26.19483      3.163702
 85            95            3.283974     -32.14752      3.285217
 90            95            3.325644     -292.7544      3.325644
 95            95            3.283974     -32.14752      3.285217
 100           95            3.158665     -26.19483      3.163702
 105           95            2.948786     -22.78548      2.960368
 110           95            2.65265      -20.44272      2.673891
 115           95            2.267599     -18.70264      2.302195
 120           95            1.789662     -17.35749      1.842196
 125           95            1.21304      -16.29531      1.289445
 130           95            .529318      -15.44822      .637612 
 135           95           -.273725      -14.77141     -.122223 
 140           95           -1.214035     -14.23345     -1.002575
 145           95           -2.318461     -13.81114     -2.020915
 150           95           -3.628436     -13.4868      -3.20144 
 155           95           -5.210922     -13.2466      -4.576866
 160           95           -7.182063     -13.07964     -6.188077
 165           95           -9.766791     -12.9773      -8.071593
 170           95           -13.49049     -12.93293     -10.19247
 175           95           -20.15922     -12.94166     -12.187  
 180           95           -34.16119     -13.00023     -12.96711
 0             100          -28.17371     -13.10008     -12.96711
 5             100          -21.54331     -12.96036     -12.39672
 10            100          -14.18648     -12.87307     -10.47001
 15            100          -10.23489     -12.84215     -8.335432
 20            100          -7.537315     -12.87309     -6.422338
 25            100          -5.498781     -12.97302     -4.784064
 30            100          -3.871601     -13.15092     -3.386986
 35            100          -2.530013     -13.41795     -2.18971 
 40            100          -1.402276     -13.78809     -1.158519
 45            100          -.444316      -14.27913     -.268332 
 50            100           .372314      -14.91424      .499014 
 55            100           1.066579     -15.72486      1.156556
 60            100           1.651392     -16.75569      1.713616
 65            100           2.135645     -18.07455      2.176827
 70            100           2.525481     -19.79328      2.55087 
 75            100           2.825117     -22.11955      2.839005
 80            100           3.037382     -25.51719      3.043436
 85            100           3.164079     -31.46287      3.165575
 90            100           3.206205     -292.9147      3.206205
 95            100           3.164079     -31.46287      3.165575
 100           100           3.037382     -25.51719      3.043436
 105           100           2.825117     -22.11955      2.839005
 110           100           2.525481     -19.79328      2.55087 
 115           100           2.135645     -18.07455      2.176827
 120           100           1.651392     -16.75569      1.713616
 125           100           1.066579     -15.72486      1.156556
 130           100           .372314      -14.91424      .499014 
 135           100          -.444316      -14.27913     -.268332 
 140           100          -1.402276     -13.78809     -1.158519
 145           100          -2.530013     -13.41795     -2.18971 
 150           100          -3.871601     -13.15092     -3.386986
 155           100          -5.498781     -12.97302     -4.784064
 160           100          -7.537315     -12.87309     -6.422338
 165           100          -10.23489     -12.84215     -8.335432
 170           100          -14.18648     -12.87307     -10.47001
 175           100          -21.54331     -12.96036     -12.39672
 180           100          -28.17371     -13.10008     -12.96711
 0             105          -24.70719     -13.26824     -12.96711
 5             105          -22.88954     -13.04918     -12.6205 
 10            105          -14.93306     -12.88623     -10.77986
 15            105          -10.7472      -12.78394     -8.636953
 20            105          -7.933583     -12.74827     -6.695024
 25            105          -5.82648      -12.78665     -5.029731
 30            105          -4.154475     -12.90822     -3.611267
 35            105          -2.781727     -13.12424     -2.397845
 40            105          -1.631481     -13.44863     -1.354687
 45            105          -.656867      -13.89907     -.455741 
 50            105           .172253      -14.4986       .317931 
 55            105           .875944      -15.27845      .979968 
 60            105           1.467867     -16.28313      1.540155
 65            105           1.957443     -17.58026      2.005483
 70            105           2.351197     -19.28149      2.380916
 75            105           2.653624     -21.59434      2.669924
 80            105           2.867752     -24.98249      2.874871
 85            105           2.995516     -30.92252      2.997277
 90            105           3.037988     -293.1298      3.037988
 95            105           2.995516     -30.92252      2.997277
 100           105           2.867752     -24.98249      2.874871
 105           105           2.653624     -21.59434      2.669924
 110           105           2.351197     -19.28149      2.380916
 115           105           1.957443     -17.58026      2.005483
 120           105           1.467867     -16.28313      1.540155
 125           105           .875944      -15.27845      .979968 
 130           105           .172253      -14.4986       .317931 
 135           105          -.656867      -13.89907     -.455741 
 140           105          -1.631481     -13.44863     -1.354687
 145           105          -2.781727     -13.12424     -2.397845
 150           105          -4.154475     -12.90822     -3.611267
 155           105          -5.82648      -12.78665     -5.029731
 160           105          -7.933583     -12.74827     -6.695024
 165           105          -10.7472      -12.78394     -8.636953
 170           105          -14.93306     -12.88623     -10.77986
 175           105          -22.88954     -13.04918     -12.6205 
 180           105          -24.70719     -13.26824     -12.96711
 0             110          -22.28608     -13.5074      -12.96711
 5             110          -23.92554     -13.2114      -12.85775
 10            110          -15.71834     -12.97617     -11.12403
 15            110          -11.30114     -12.80678     -8.97874 
 20            110          -8.369401     -12.7095      -7.008158
 25            110          -6.192695     -12.69189     -5.315187
 30            110          -4.475684     -12.76307     -3.874975
 35            110          -3.07213      -12.93417     -2.645479
 40            110          -1.900061     -13.2189      -1.590787
 45            110          -.90968       -13.63469     -.683768 
 50            110          -.069057      -14.20426      .095386 
 55            110           .643042      -14.95854      .760996 
 60            110           1.241083     -15.94177      1.323379
 65            110           1.735067     -17.22125      1.789945
 70            110           2.131939     -18.90842      2.165983
 75            110           2.436503     -21.21056      2.455216
 80            110           2.652008     -24.59117      2.660194
 85            110           2.78054      -30.52674      2.782568
 90            110           2.82326      -293.4827      2.82326 
 95            110           2.78054      -30.52674      2.782568
 100           110           2.652008     -24.59117      2.660194
 105           110           2.436503     -21.21056      2.455216
 110           110           2.131939     -18.90842      2.165983
 115           110           1.735067     -17.22125      1.789945
 120           110           1.241083     -15.94177      1.323379
 125           110           .643042      -14.95854      .760996 
 130           110          -.069057      -14.20426      .095386 
 135           110          -.90968       -13.63469     -.683768 
 140           110          -1.900061     -13.2189      -1.590787
 145           110          -3.07213      -12.93417     -2.645479
 150           110          -4.475684     -12.76307     -3.874975
 155           110          -6.192695     -12.69189     -5.315187
 160           110          -8.369401     -12.7095      -7.008158
 165           110          -11.30114     -12.80678     -8.97874 
 170           110          -15.71834     -12.97617     -11.12403
 175           110          -23.92554     -13.2114      -12.85775
 180           110          -22.28608     -13.5074      -12.96711
 0             115          -20.44815     -13.8216      -12.96711
 5             115          -24.28987     -13.45158     -13.10752
 10            115          -16.52074     -13.14787     -11.50448
 15            115          -11.89181     -12.91593     -9.363451
 20            115          -8.841945     -12.76215     -7.363668
 25            115          -6.594993     -12.69404     -5.64147 
 30            115          -4.832826     -12.72055     -4.178373
 35            115          -3.398753     -12.85248     -2.932226
 40            115          -2.205443     -13.10321     -1.865881
 45            115          -1.200063     -13.48974     -.951003 
 50            115          -.348808      -14.03441     -.1668   
 55            115           .370793      -14.76777      .50182  
 60            115           .974068      -15.73366      1.065778
 65            115           1.471638     -16.99907      1.532963
 70            115           1.870907     -18.67514      1.909037
 75            115           2.177016     -20.9689       2.198012
 80            115           2.393461     -24.34367      2.402658
 85            115           2.522493     -30.27579      2.524772
 90            115           2.565368     -293.9159      2.565368
 95            115           2.522493     -30.27579      2.524772
 100           115           2.393461     -24.34367      2.402658
 105           115           2.177016     -20.9689       2.198012
 110           115           1.870907     -18.67514      1.909037
 115           115           1.471638     -16.99907      1.532963
 120           115           .974068      -15.73366      1.065778
 125           115           .370793      -14.76777      .50182  
 130           115          -.348808      -14.03441     -.1668   
 135           115          -1.200063     -13.48974     -.951003 
 140           115          -2.205443     -13.10321     -1.865881
 145           115          -3.398753     -12.85248     -2.932226
 150           115          -4.832826     -12.72055     -4.178373
 155           115          -6.594993     -12.69404     -5.64147 
 160           115          -8.841945     -12.76215     -7.363668
 165           115          -11.89181     -12.91593     -9.363451
 170           115          -16.52074     -13.14787     -11.50448
 175           115          -24.28987     -13.45158     -13.10752
 180           115          -20.44815     -13.8216      -12.96711
 0             120          -18.98771     -14.2165      -12.96711
 5             120          -23.84674     -13.7759      -13.36837
 10            120          -17.3055      -13.40785     -11.92306
 15            120          -12.51129     -13.11806     -9.793788
 20            120          -9.346741     -12.91289     -7.763324
 25            120          -7.02963      -12.79964     -6.009242
 30            120          -5.22232      -12.78688     -4.521188
 35            120          -3.758001     -12.88498     -3.257047
 40            120          -2.543955     -13.10683     -2.178289
 45            120          -1.524238     -13.46895     -1.255213
 50            120          -.663104      -13.9932      -.465917 
 55            120           .063214      -14.70967      .205565 
 60            120           .670952      -15.66179      .770838 
 65            120           1.171389     -16.91619      1.238328
 70            120           1.572423     -18.58369      1.614119
 75            120           1.87956      -20.87106      1.902552
 80            120           2.09656      -24.24142      2.10664 
 85            120           2.225853     -30.17095      2.228353
 90            120           2.268805     -294.4498      2.268805
 95            120           2.225853     -30.17095      2.228353
 100           120           2.09656      -24.24142      2.10664 
 105           120           1.87956      -20.87106      1.902552
 110           120           1.572423     -18.58369      1.614119
 115           120           1.171389     -16.91619      1.238328
 120           120           .670952      -15.66179      .770838 
 125           120           .063214      -14.70967      .205565 
 130           120          -.663104      -13.9932      -.465917 
 135           120          -1.524238     -13.46895     -1.255213
 140           120          -2.543955     -13.10683     -2.178289
 145           120          -3.758001     -12.88498     -3.257047
 150           120          -5.22232      -12.78688     -4.521188
 155           120          -7.02963      -12.79964     -6.009242
 160           120          -9.346741     -12.91289     -7.763324
 165           120          -12.51129     -13.11806     -9.793788
 170           120          -17.3055      -13.40785     -11.92306
 175           120          -23.84674     -13.7759      -13.36837
 180           120          -18.98771     -14.2165      -12.96711
 0             125          -17.79529     -14.69982     -12.96711
 5             125          -22.85322     -14.19256     -13.6383 
 10            125          -18.02326     -13.7646      -12.38129
 15            125          -13.14797     -13.42177     -10.27241
 20            125          -9.877342     -13.17027     -8.20861 
 25            125          -7.491347     -13.01699     -6.418639
 30            125          -5.639247     -12.97        -4.902449
 35            125          -4.145028     -13.03913     -3.618088
 40            125          -2.910715     -13.2367      -2.525433
 45            125          -1.877237     -13.57867     -1.593209
 50            125          -1.006867     -14.08639     -.798245 
 55            125          -.2745        -14.78944     -.123588 
 60            125           .337044      -15.73084      .443136 
 65            125           .839741      -16.97683      .910954 
 70            125           1.242004     -18.63788      1.286423
 75            125           1.549727     -20.92053      1.574248
 80            125           1.766954     -24.28766      1.777713
 85            125           1.896309     -30.21531      1.898979
 90            125           1.939268     -295.0527      1.939268
 95            125           1.896309     -30.21531      1.898979
 100           125           1.766954     -24.28766      1.777713
 105           125           1.549727     -20.92053      1.574248
 110           125           1.242004     -18.63788      1.286423
 115           125           .839741      -16.97683      .910954 
 120           125           .337044      -15.73084      .443136 
 125           125          -.2745        -14.78944     -.123588 
 130           125          -1.006867     -14.08639     -.798245 
 135           125          -1.877237     -13.57867     -1.593209
 140           125          -2.910715     -13.2367      -2.525433
 145           125          -4.145028     -13.03913     -3.618088
 150           125          -5.639247     -12.97        -4.902449
 155           125          -7.491347     -13.01699     -6.418639
 160           125          -9.877342     -13.17027     -8.20861 
 165           125          -13.14797     -13.42177     -10.27241
 170           125          -18.02326     -13.7646      -12.38129
 175           125          -22.85322     -14.19256     -13.6383 
 180           125          -17.79529     -14.69982     -12.96711
 0             130          -16.80576     -15.28203     -12.96711
 5             130          -21.6662      -14.71244     -13.91462
 10            130          -18.61475     -14.22925     -12.88017
 15            130          -13.78604     -13.83827     -10.80178
 20            130          -10.42505     -13.54534     -8.700495
 25            130          -7.97317      -13.35686     -6.868997
 30            130          -6.077188     -13.2803      -5.320224
 35            130          -4.553597     -13.32485     -4.012444
 40            130          -3.299515     -13.50221     -2.903629
 45            130          -2.252806     -13.82776     -1.96066 
 50            130          -1.373754     -14.32228     -1.158899
 55            130          -.6359        -15.01487     -.480273 
 60            130          -.02109       -15.9481       .088454 
 65            130           .483364      -17.18784      .556981 
 70            130           .886418      -18.84422      .932382 
 75            130           1.194369     -21.1235       1.219763
 80            130           1.411557     -24.48838      1.422706
 85            130           1.540809     -30.41475      1.543577
 90            130           1.583721     -295.6318      1.583721
 95            130           1.540809     -30.41475      1.543577
 100           130           1.411557     -24.48838      1.422706
 105           130           1.194369     -21.1235       1.219763
 110           130           .886418      -18.84422      .932382 
 115           130           .483364      -17.18784      .556981 
 120           130          -.02109       -15.9481       .088454 
 125           130          -.6359        -15.01487     -.480273 
 130           130          -1.373754     -14.32228     -1.158899
 135           130          -2.252806     -13.82776     -1.96066 
 140           130          -3.299515     -13.50221     -2.903629
 145           130          -4.553597     -13.32485     -4.012444
 150           130          -6.077188     -13.2803      -5.320224
 155           130          -7.97317      -13.35686     -6.868997
 160           130          -10.42505     -13.54534     -8.700495
 165           130          -13.78604     -13.83827     -10.80178
 170           130          -18.61475     -14.22925     -12.88017
 175           130          -21.6662      -14.71244     -13.91462
 180           130          -16.80576     -15.28203     -12.96711
 0             135          -15.97741     -15.97741     -12.96711
 5             135          -20.50592     -15.35024     -14.19382
 10            135          -19.02546     -14.81668     -13.41971
 15            135          -14.40571     -14.38241     -11.38374
 20            135          -10.97879     -14.05281     -9.239015
 25            135          -8.466266     -13.83368     -7.358432
 30            135          -6.528098     -13.73179     -5.771228
 35            135          -4.97598      -13.75568     -4.435816
 40            135          -3.702731     -13.9164      -3.307801
 45            135          -2.64332      -14.22872     -2.351853
 50            135          -1.756086     -14.71288     -1.54163 
 55            135          -1.013217     -15.39749     -.857777 
 60            135          -.395583      -16.32467     -.286089 
 65            135           .110233      -17.55992      .183868 
 70            135           .513736      -19.21307      .559741 
 75            135           .821637      -21.49011      .847067 
 80            135           1.038581     -24.85352      1.04975 
 85            135           1.167605     -30.77907      1.170379
 90            135           1.210428     -296.6067      1.210428
 95            135           1.167605     -30.77907      1.170379
 100           135           1.038581     -24.85352      1.04975 
 105           135           .821637      -21.49011      .847067 
 110           135           .513736      -19.21307      .559741 
 115           135           .110233      -17.55992      .183868 
 120           135          -.395583      -16.32467     -.286089 
 125           135          -1.013217     -15.39749     -.857777 
 130           135          -1.756086     -14.71288     -1.54163 
 135           135          -2.64332      -14.22872     -2.351853
 140           135          -3.702731     -13.9164      -3.307801
 145           135          -4.97598      -13.75568     -4.435816
 150           135          -6.528098     -13.73179     -5.771228
 155           135          -8.466266     -13.83368     -7.358432
 160           135          -10.97879     -14.05281     -9.239015
 165           135          -14.40571     -14.38241     -11.38374
 170           135          -19.02546     -14.81668     -13.41971
 175           135          -20.50592     -15.35024     -14.19382
 180           135          -15.97741     -15.97741     -12.96711
 0             140          -15.28203     -16.80576     -12.96711
 5             140          -19.46351     -16.12611     -14.47152
 10            140          -19.22699     -15.5472      -13.99819
 15            140          -14.9845      -15.07448     -12.01896
 20            140          -11.5252      -14.71279     -9.822584
 25            140          -8.959915     -14.46722     -7.883188
 30            140          -6.982263     -14.34388     -6.250266
 35            140          -5.402903     -14.35058     -4.882052
 40            140          -4.111286     -14.49775     -3.731105
 45            140          -3.039761     -14.79957     -2.759405
 50            140          -2.144826     -15.27573     -1.938601
 55            140          -1.397353     -15.95439     -1.247872
 60            140          -.77725       -16.87725     -.67193  
 65            140          -.270375      -18.10944     -.199527 
 70            140           .133323      -19.76049      .177601 
 75            140           .440975      -22.03616      .465457 
 80            140           .657531      -25.39873      .668286 
 85            140           .78624       -31.32383      .78891  
 90            140           .828943      -297.6468      .828943 
 95            140           .78624       -31.32383      .78891  
 100           140           .657531      -25.39873      .668286 
 105           140           .440975      -22.03616      .465457 
 110           140           .133323      -19.76049      .177601 
 115           140          -.270375      -18.10944     -.199527 
 120           140          -.77725       -16.87725     -.67193  
 125           140          -1.397353     -15.95439     -1.247872
 130           140          -2.144826     -15.27573     -1.938601
 135           140          -3.039761     -14.79957     -2.759405
 140           140          -4.111286     -14.49775     -3.731105
 145           140          -5.402903     -14.35058     -4.882052
 150           140          -6.982263     -14.34388     -6.250266
 155           140          -8.959915     -14.46722     -7.883188
 160           140          -11.5252      -14.71279     -9.822584
 165           140          -14.9845      -15.07448     -12.01896
 170           140          -19.22699     -15.5472      -13.99819
 175           140          -19.46351     -16.12611     -14.47152
 180           140          -15.28203     -16.80576     -12.96711
 0             145          -14.69982     -17.79529     -12.96711
 5             145          -18.5649      -17.06858     -14.74231
 10            145          -19.23143     -16.44947     -14.6111 
 15            145          -15.50011     -15.94308     -12.70565
 20            145          -12.04921     -15.55365     -10.44684
 25            145          -9.441682     -15.28558     -8.436662
 30            145          -7.42837      -15.14426     -6.749466
 35            145          -5.823607     -15.13684     -5.342561
 40            145          -4.514694     -15.27312     -4.164496
 45            145          -3.431769     -15.56672     -3.173939
 50            145          -2.529641     -16.03685     -2.340165
 55            145          -1.777945     -16.7112      -1.640674
 60            145          -1.155664     -17.6311      -1.058971
 65            145          -.647957      -18.86134     -.582916 
 70            145          -.244235      -20.51119     -.203585 
 75            145           .06304       -22.78615      .085517 
 80            145           .27912       -26.14835      .288995 
 85            145           .407461      -32.07326      .409913 
 90            145           .450029      -298.5061      .450029 
 95            145           .407461      -32.07326      .409913 
 100           145           .27912       -26.14835      .288995 
 105           145           .06304       -22.78615      .085517 
 110           145          -.244235      -20.51119     -.203585 
 115           145          -.647957      -18.86134     -.582916 
 120           145          -1.155664     -17.6311      -1.058971
 125           145          -1.777945     -16.7112      -1.640674
 130           145          -2.529641     -16.03685     -2.340165
 135           145          -3.431769     -15.56672     -3.173939
 140           145          -4.514694     -15.27312     -4.164496
 145           145          -5.823607     -15.13684     -5.342561
 150           145          -7.42837      -15.14426     -6.749466
 155           145          -9.441682     -15.28558     -8.436662
 160           145          -12.04921     -15.55365     -10.44684
 165           145          -15.50011     -15.94308     -12.70565
 170           145          -19.23143     -16.44947     -14.6111 
 175           145          -18.5649      -17.06858     -14.74231
 180           145          -14.69982     -17.79529     -12.96711
 0             150          -14.2165      -18.98771     -12.96711
 5             150          -17.81031     -18.21965     -14.99986
 10            150          -19.08624     -17.56558     -15.24939
 15            150          -15.93447     -17.03023     -13.43758
 20            150          -12.53503     -16.61723     -11.10287
 25            150          -9.897843     -16.3303      -9.008049
 30            150          -7.853775     -16.17415     -7.257313
 35            150          -6.226054     -16.15529     -5.805646
 40            150          -4.90126      -16.28295     -4.596276
 45            150          -3.807821     -16.57024     -3.583798
 50            150          -2.899082     -17.0359      -2.734699
 55            150          -2.143548     -17.70724     -2.024573
 60            150          -1.519343     -18.62523     -1.43559 
 65            150          -1.010969     -19.85437     -.954654 
 70            150          -.607327      -21.50365     -.57214  
 75            150          -.300493      -23.77838     -.281039 
 80            150          -.084926      -27.14053     -.07638  
 85            150           .043028      -33.06547      .04515  
 90            150           .085454      -299.9279      .085454 
 95            150           .043028      -33.06547      .04515  
 100           150          -.084926      -27.14053     -.07638  
 105           150          -.300493      -23.77838     -.281039 
 110           150          -.607327      -21.50365     -.57214  
 115           150          -1.010969     -19.85437     -.954654 
 120           150          -1.519343     -18.62523     -1.43559 
 125           150          -2.143548     -17.70724     -2.024573
 130           150          -2.899082     -17.0359      -2.734699
 135           150          -3.807821     -16.57024     -3.583798
[...]
 150           320          -3.224979     -22.32728     -3.171903
 155           320          -4.318916     -21.3356      -4.233442
 160           320          -5.624987     -20.33739     -5.480673
 165           320          -7.214294     -19.3622      -6.95721 
 170           320          -9.20258      -18.43605     -8.713102
 175           320          -11.78738     -17.57909     -10.77153
 180           320          -15.28203     -16.80576     -12.96711
 0             325          -14.69982     -17.79529     -12.96711
 5             325          -11.47842     -18.62224     -10.71192
 10            325          -9.045129     -19.53798     -8.673766
 15            325          -7.150076     -20.52473     -6.954858
 20            325          -5.625017     -21.55618     -5.515575
 25            325          -4.367338     -22.59692     -4.302537
 30            325          -3.312325     -23.60584     -3.271922
 35            325          -2.417296     -24.54595     -2.390775
 40            325          -1.652985     -25.39936     -1.634694
 45            325          -.998695      -26.18007     -.985543 
 50            325          -.439447      -26.93643     -.429728 
 55            325           .03578       -27.74304      .043017 
 60            325           .435178      -28.69147      .440485 
 65            325           .764858      -29.88989      .768591 
 70            325           1.029363     -31.48038      1.031799
 75            325           1.232029     -33.69116      1.233427
 80            325           1.375228     -36.999        1.375859
 85            325           1.460543     -42.88823      1.460702
 90            325           1.488883     -297.6828      1.488883
 95            325           1.460543     -42.88823      1.460702
 100           325           1.375228     -36.999        1.375859
 105           325           1.232029     -33.69116      1.233427
 110           325           1.029363     -31.48038      1.031799
 115           325           .764858      -29.88989      .768591 
 120           325           .435178      -28.69147      .440485 
 125           325           .03578       -27.74304      .043017 
 130           325          -.439447      -26.93643     -.429728 
 135           325          -.998695      -26.18007     -.985543 
 140           325          -1.652985     -25.39936     -1.634694
 145           325          -2.417296     -24.54595     -2.390775
 150           325          -3.312325     -23.60584     -3.271922
 155           325          -4.367338     -22.59692     -4.302537
 160           325          -5.625017     -21.55618     -5.515575
 165           325          -7.150076     -20.52473     -6.954858
 170           325          -9.045129     -19.53798     -8.673766
 175           325          -11.47842     -18.62224     -10.71192
 180           325          -14.69982     -17.79529     -12.96711
 0             330          -14.2165      -18.98771     -12.96711
 5             330          -11.21762     -19.86217     -10.66143
 10            330          -8.913771     -20.83017     -8.643041
 15            330          -7.100883     -21.87042     -6.958424
 20            330          -5.633584     -22.94991     -5.553756
 25            330          -4.420015     -24.02285     -4.372686
 30            330          -3.400844     -25.03566     -3.37114 
 35            330          -2.536241     -25.94193     -2.516461
 40            330          -1.798496     -26.7239      -1.784546
 45            330          -1.167763     -27.40736     -1.157452
 50            330          -.629509      -28.05831     -.621666 
 55            330          -.172916      -28.7666      -.166917 
 60            330           .210148      -29.63221      .214649 
 65            330           .525816      -30.76567      .52904  
 70            330           .778698      -32.30785      .780831 
 75            330           .97221       -34.48447      .973446 
 80            330           1.108804     -37.76984      1.109366
 85            330           1.190128     -43.64637      1.190271
 90            330           1.217133     -298.8227      1.217133
 95            330           1.190128     -43.64637      1.190271
 100           330           1.108804     -37.76984      1.109366
 105           330           .97221       -34.48447      .973446 
 110           330           .778698      -32.30785      .780831 
 115           330           .525816      -30.76567      .52904  
 120           330           .210148      -29.63221      .214649 
 125           330          -.172916      -28.7666      -.166917 
 130           330          -.629509      -28.05831     -.621666 
 135           330          -1.167763     -27.40736     -1.157452
 140           330          -1.798496     -26.7239      -1.784546
 145           330          -2.536241     -25.94193     -2.516461
 150           330          -3.400844     -25.03566     -3.37114 
 155           330          -4.420015     -24.02285     -4.372686
 160           330          -5.633584     -22.94991     -5.553756
 165           330          -7.100883     -21.87042     -6.958424
 170           330          -8.913771     -20.83017     -8.643041
 175           330          -11.21762     -19.86217     -10.66143
 180           330          -14.2165      -18.98771     -12.96711
 0             335          -13.8216      -20.44815     -12.96711
 5             335          -11.00184     -21.36356     -10.61958
 10            335          -8.806359     -22.37674     -8.619561
 15            335          -7.064099     -23.46287     -6.965703
 20            335          -5.647323     -24.58208     -5.592173
 25            335          -4.472808     -25.67778     -4.440025
 30            335          -3.485655     -26.68398     -3.46491 
 35            335          -2.648415     -27.54654     -2.634378
 40            335          -1.93469      -28.25158     -1.924561
 45            335          -1.325351     -28.84016     -1.317661
 50            335          -.806229      -29.39634     -.800224 
 55            335          -.366666      -30.02229     -.361968 
 60            335           .001432      -30.82266      .005023 
 65            335           .304237      -31.90749      .306847 
 70            335           .546432      -33.41499      .548176 
 75            335           .731517      -35.56791      .732535 
 80            335           .862024      -38.8381       .86249  
 85            335           .939669      -44.70619      .939787 
 90            335           .965442      -999           .965442 
 95            335           .939669      -44.70619      .939787 
 100           335           .862024      -38.8381       .86249  
 105           335           .731517      -35.56791      .732535 
 110           335           .546432      -33.41499      .548176 
 115           335           .304237      -31.90749      .306847 
 120           335           .001432      -30.82266      .005023 
 125           335          -.366666      -30.02229     -.361968 
 130           335          -.806229      -29.39634     -.800224 
 135           335          -1.325351     -28.84016     -1.317661
 140           335          -1.93469      -28.25158     -1.924561
 145           335          -2.648415     -27.54654     -2.634378
 150           335          -3.485655     -26.68398     -3.46491 
 155           335          -4.472808     -25.67778     -4.440025
 160           335          -5.647323     -24.58208     -5.592173
 165           335          -7.064099     -23.46287     -6.965703
 170           335          -8.806359     -22.37674     -8.619561
 175           335          -11.00184     -21.36356     -10.61958
 180           335          -13.8216      -20.44815     -12.96711
 0             340          -13.5074      -22.28608     -12.96711
 5             340          -10.82856     -23.23552     -10.58595
 10            340          -8.721047     -24.28632     -8.602116
 15            340          -7.037397     -25.41036     -6.974685
 20            340          -5.663169     -26.56112     -5.627995
 25            340          -4.521886     -27.67167     -4.500909
 30            340          -3.562185     -28.66459     -3.548792
 35            340          -2.748543     -29.48025     -2.739335
 40            340          -2.055628     -30.11163     -2.048839
 45            340          -1.46489      -30.61618     -1.459613
 50            340          -.962453      -31.0939      -.958241 
 55            340          -.53778       -31.6556      -.534424 
 60            340          -.182792      -32.40758     -.180191 
 65            340           .108725      -33.45783      .110635 
 70            340           .341527      -34.94153      .342813 
 75            340           .519197      -37.07866      .519952 
 80            340           .644345      -40.33894      .644691 
 85            340           .718748      -46.20163      .718836 
 90            340           .743436      -999           .743436 
 95            340           .718748      -46.20163      .718836 
 100           340           .644345      -40.33894      .644691 
 105           340           .519197      -37.07866      .519952 
 110           340           .341527      -34.94153      .342813 
 115           340           .108725      -33.45783      .110635 
 120           340          -.182792      -32.40758     -.180191 
 125           340          -.53778       -31.6556      -.534424 
 130           340          -.962453      -31.0939      -.958241 
 135           340          -1.46489      -30.61618     -1.459613
 140           340          -2.055628     -30.11163     -2.048839
 145           340          -2.748543     -29.48025     -2.739335
 150           340          -3.562185     -28.66459     -3.548792
 155           340          -4.521886     -27.67167     -4.500909
 160           340          -5.663169     -26.56112     -5.627995
 165           340          -7.037397     -25.41036     -6.974685
 170           340          -8.721047     -24.28632     -8.602116
 175           340          -10.82856     -23.23552     -10.58595
 180           340          -13.5074      -22.28608     -12.96711
 0             345          -13.26824     -24.70719     -12.96711
 5             345          -10.69577     -25.68343     -10.56018
 10            345          -8.656305     -26.76389     -8.589672
 15            345          -7.018789     -27.91758     -6.983621
 20            345          -5.678457     -29.09215     -5.658713
 25            345          -4.563871     -30.21149     -4.552056
 30            345          -3.626362     -31.18858     -3.618755
 35            345          -2.831887     -31.9606      -2.826582
 40            345          -2.155937     -32.52861     -2.151953
 45            345          -1.580408     -32.9652      -1.577252
 50            345          -1.091647     -33.38279     -1.089086
 55            345          -.679205      -33.89751     -.677135 
 60            345          -.335004      -34.61548     -.333384 
 65            345          -.052788      -35.64226     -.051589 
 70            345           .172265      -37.11028      .173077 
 75            345           .343813      -39.23726      .344291 
 80            345           .464533      -42.49132      .464753 
 85            345           .536256      -48.35066      .536312 
 90            345           .560047      -999           .560047 
 95            345           .536256      -48.35066      .536312 
 100           345           .464533      -42.49132      .464753 
 105           345           .343813      -39.23726      .344291 
 110           345           .172265      -37.11028      .173077 
 115           345          -.052788      -35.64226     -.051589 
 120           345          -.335004      -34.61548     -.333384 
 125           345          -.679205      -33.89751     -.677135 
 130           345          -1.091647     -33.38279     -1.089086
 135           345          -1.580408     -32.9652      -1.577252
 140           345          -2.155937     -32.52861     -2.151953
 145           345          -2.831887     -31.9606      -2.826582
 150           345          -3.626362     -31.18858     -3.618755
 155           345          -4.563871     -30.21149     -4.552056
 160           345          -5.678457     -29.09215     -5.658713
 165           345          -7.018789     -27.91758     -6.983621
 170           345          -8.656305     -26.76389     -8.589672
 175           345          -10.69577     -25.68343     -10.56018
 180           345          -13.26824     -24.70719     -12.96711
 0             350          -13.10008     -28.17371     -12.96711
 5             350          -10.60197     -29.16927     -10.54198
 10            350          -8.61093      -30.27113     -8.581398
 15            350          -7.006676     -31.44609     -6.991079
 20            350          -5.691005     -32.63717     -5.68224 
 25            350          -4.595969     -33.76112     -4.590709
 30            350          -3.674788     -34.72376     -3.671378
 35            350          -2.894467     -35.46071     -2.892062
 40            350          -2.23108      -35.98058     -2.229249
 45            350          -1.66684      -36.36783     -1.665369
 50            350          -1.18825      -36.74352     -1.187041
 55            350          -.784916      -37.22661     -.783931 
 60            350          -.448761      -37.92238     -.447984 
 65            350          -.173489      -38.93423     -.172912 
 70            350           .045773      -40.39249      .046166 
 75            350           .212743      -42.5133       .212974 
 80            350           .330149      -45.76365      .330256 
 85            350           .399866      -51.62102      .399893 
 90            350           .422985      -999           .422985 
 95            350           .399866      -51.62102      .399893 
 100           350           .330149      -45.76365      .330256 
 105           350           .212743      -42.5133       .212974 
 110           350           .045773      -40.39249      .046166 
 115           350          -.173489      -38.93423     -.172912 
 120           350          -.448761      -37.92238     -.447984 
 125           350          -.784916      -37.22661     -.783931 
 130           350          -1.18825      -36.74352     -1.187041
 135           350          -1.66684      -36.36783     -1.665369
 140           350          -2.23108      -35.98058     -2.229249
 145           350          -2.894467     -35.46071     -2.892062
 150           350          -3.674788     -34.72376     -3.671378
 155           350          -4.595969     -33.76112     -4.590709
 160           350          -5.691005     -32.63717     -5.68224 
 165           350          -7.006676     -31.44609     -6.991079
 170           350          -8.61093      -30.27113     -8.581398
 175           350          -10.60197     -29.16927     -10.54198
 180           350          -13.10008     -28.17371     -12.96711
 0             355          -13.00023     -34.16119     -12.96711
 5             355          -10.54611     -35.16842     -10.53115
 10            355          -8.584053     -36.28321     -8.576682
 15            355          -6.999886     -37.47095     -6.995992
 20            355          -5.699198     -38.67172     -5.697008
 25            355          -4.616092     -39.79772     -4.614775
 30            355          -3.704906     -40.75035     -3.704049
 35            355          -2.93327      -41.46471     -2.932661
 40            355          -2.277608     -41.95468     -2.27714 
 45            355          -1.72032      -42.31219     -1.719941
 50            355          -1.248001     -42.66329     -1.247687
 55            355          -.85029       -43.12826     -.850033 
 60            355          -.519105      -43.81156     -.518902 
 65            355          -.248128      -44.81516     -.247976 
 70            355          -.032447      -46.26814     -.032344 
 75            355           .131688      -48.38566      .131749 
 80            355           .247043      -51.63405      .247071 
 85            355           .315517      -57.4904       .315524 
 90            355           .338219      -999           .338219 
 95            355           .315517      -57.4904       .315524 
 100           355           .247043      -51.63405      .247071 
 105           355           .131688      -48.38566      .131749 
 110           355          -.032447      -46.26814     -.032344 
 115           355          -.248128      -44.81516     -.247976 
 120           355          -.519105      -43.81156     -.518902 
 125           355          -.85029       -43.12826     -.850033 
 130           355          -1.248001     -42.66329     -1.247687
 135           355          -1.72032      -42.31219     -1.719941
 140           355          -2.277608     -41.95468     -2.27714 
 145           355          -2.93327      -41.46471     -2.932661
 150           355          -3.704906     -40.75035     -3.704049
 155           355          -4.616092     -39.79772     -4.614775
 160           355          -5.699198     -38.67172     -5.697008
 165           355          -6.999886     -37.47095     -6.995992
 170           355          -8.584053     -36.28321     -8.576682
 175           355          -10.54611     -35.16842     -10.53115
 180           355          -13.00023     -34.16119     -12.96711
 0             360          -12.96711     -999          -12.96711
 5             360          -10.52755     -999          -10.52755
 10            360          -8.575152     -999          -8.575152
 15            360          -6.997703     -999          -6.997703
 20            360          -5.70204      -999          -5.70204 
 25            360          -4.622945     -999          -4.622945
 30            360          -3.715126     -999          -3.715126
 35            360          -2.946418     -999          -2.946418
 40            360          -2.293362     -999          -2.293362
 45            360          -1.738422     -999          -1.738422
 50            360          -1.268223     -999          -1.268223
 55            360          -.872413      -999          -.872413 
 60            360          -.54291       -999          -.54291  
 65            360          -.273386      -999          -.273386 
 70            360          -.058918      -999          -.058918 
 75            360           .104257      -999           .104257 
 80            360           .218917      -999           .218917 
 85            360           .28697       -999           .28697  
 90            360           .309532      -999           .309532 
 95            360           .28697       -999           .28697  
 100           360           .218917      -999           .218917 
 105           360           .104257      -999           .104257 
 110           360          -.058918      -999          -.058918 
 115           360          -.273386      -999          -.273386 
 120           360          -.54291       -999          -.54291  
 125           360          -.872413      -999          -.872413 
 130           360          -1.268223     -999          -1.268223
 135           360          -1.738422     -999          -1.738422
 140           360          -2.293362     -999          -2.293362
 145           360          -2.946418     -999          -2.946418
 150           360          -3.715126     -999          -3.715126
 155           360          -4.622945     -999          -4.622945
 160           360          -5.70204      -999          -5.70204 
 165           360          -6.997703     -999          -6.997703
 170           360          -8.575152     -999          -8.575152
 175           360          -10.52755     -999          -10.52755
 180           360          -12.96711     -999          -12.96711
