                   ****************************************
                     MINI-NUMERICAL ELECTROMAGNETICS CODE
                                   MININEC
                   ****************************************

FREQUENCY (MHZ): 14
    WAVE LENGTH =  21.41429  METERS

ENVIRONMENT (+1 FOR FREE SPACE, -1 FOR GROUND PLANE): -1
 NUMBER OF MEDIA (0 FOR PERFECTLY CONDUCTING GROUND):  1
 RELATIVE DIELECTRIC CONSTANT, CONDUCTIVITY:  13 , .005

NO. OF GEO-OBJECTS: 5

WIRE NO. 1
            COORDINATES                                 END         NO. OF
   X             Y             Z          RADIUS     CONNECTION     SEGMENTS
 0            -5.4864        10                         0
 0             0             10            .001005      0              9

WIRE NO. 2
            COORDINATES                                 END         NO. OF
   X             Y             Z          RADIUS     CONNECTION     SEGMENTS
 0             5.4864        10                         0
 0             0             10            .001005     -1              9

WIRE NO. 3
            COORDINATES                                 END         NO. OF
   X             Y             Z          RADIUS     CONNECTION     SEGMENTS
 0             0             10                         1
 0             0             12.4384       .001005      0              4

WIRE NO. 4
            COORDINATES                                 END         NO. OF
   X             Y             Z          RADIUS     CONNECTION     SEGMENTS
 0             0             12.4384                    3
 0            -2.4384        12.4384       .001005      0              4

WIRE NO. 5
            COORDINATES                                 END         NO. OF
   X             Y             Z          RADIUS     CONNECTION     SEGMENTS
 0             0             12.4384                    3
 0             2.4384        12.4384       .001005      0              4

                  **** ANTENNA GEOMETRY ****

WIRE NO.  1 COORDINATES                                 CONNECTION PULSE
X             Y             Z             RADIUS        END1 END2  NO.
 0            -4.8768        10            .001005       0    1   1
 0            -4.2672        10            .001005       1    1   2
 0            -3.6576        10            .001005       1    1   3
 0            -3.048         10            .001005       1    1   4
 0            -2.4384        10            .001005       1    1   5
 0            -1.8288        10            .001005       1    1   6
 0            -1.2192        10            .001005       1    1   7
 0            -.6096         10            .001005       1    0   8

WIRE NO.  2 COORDINATES                                 CONNECTION PULSE
X             Y             Z             RADIUS        END1 END2  NO.
 0             4.8768        10            .001005       0    2   9
 0             4.2672        10            .001005       2    2  10
 0             3.6576        10            .001005       2    2  11
 0             3.048         10            .001005       2    2  12
 0             2.4384        10            .001005       2    2  13
 0             1.8288        10            .001005       2    2  14
 0             1.2192        10            .001005       2    2  15
 0             .6096         10            .001005       2    2  16
 0             0             10            .001005       2   -1  17

WIRE NO.  3 COORDINATES                                 CONNECTION PULSE
X             Y             Z             RADIUS        END1 END2  NO.
 0             0             10            .001005       1    3  18
 0             0             10.6096       .001005       3    3  19
 0             0             11.2192       .001005       3    3  20
 0             0             11.8288       .001005       3    0  21

WIRE NO.  4 COORDINATES                                 CONNECTION PULSE
X             Y             Z             RADIUS        END1 END2  NO.
 0             0             12.4384       .001005       3    4  22
 0            -.6096         12.4384       .001005       4    4  23
 0            -1.2192        12.4384       .001005       4    4  24
 0            -1.8288        12.4384       .001005       4    0  25

WIRE NO.  5 COORDINATES                                 CONNECTION PULSE
X             Y             Z             RADIUS        END1 END2  NO.
 0             0             12.4384       .001005       3    5  26
 0             .6096         12.4384       .001005       5    5  27
 0             1.2192        12.4384       .001005       5    5  28
 0             1.8288        12.4384       .001005       5    0  29

NO. OF SOURCES :  1
PULSE NO., VOLTAGE MAGNITUDE, PHASE (DEGREES): 18 , 1 , 0
NUMBER OF LOADS 0

********************    SOURCE DATA     ********************
PULSE 18      VOLTAGE = ( 1 , 0 J)
              CURRENT = ( 3.868904E-02 , -4.533844E-02 J)
              IMPEDANCE = ( 10.89091 ,  12.7627  J)
              POWER =  1.934452E-02  WATTS

********************    CURRENT DATA    ********************

WIRE NO.  1 :
PULSE         REAL          IMAGINARY     MAGNITUDE     PHASE
 NO.          (AMPS)        (AMPS)        (AMPS)        (DEGREES)
E              0             0             0             0
 1             3.654851E-03 -4.404253E-03  5.723232E-03 -50.31256 
 2             6.944332E-03 -8.339383E-03  1.085215E-02 -50.21533 
 3             9.959192E-03 -1.192017E-02  1.553306E-02 -50.12157 
 4             1.265514E-02 -1.509791E-02  1.970023E-02 -50.0301  
 5             1.497277E-02 -1.780591E-02  2.326444E-02 -49.93994 
 6             1.685218E-02 -1.997702E-02  2.613575E-02 -49.84975 
 7             1.823843E-02 -2.154964E-02  2.823167E-02 -49.75726 
 8             1.908551E-02 -2.247075E-02  2.948205E-02 -49.65713 
J              1.934452E-02 -2.266922E-02  2.980108E-02 -49.52459 
WIRE NO.  2 :
PULSE         REAL          IMAGINARY     MAGNITUDE     PHASE
 NO.          (AMPS)        (AMPS)        (AMPS)        (DEGREES)
E              0             0             0             0
 9             3.654851E-03 -4.404253E-03  5.723232E-03 -50.31256 
 10            6.944332E-03 -8.339383E-03  1.085215E-02 -50.21533 
 11            9.959192E-03 -1.192017E-02  1.553306E-02 -50.12157 
 12            1.265514E-02 -1.509791E-02  1.970023E-02 -50.0301  
 13            1.497277E-02 -1.780591E-02  2.326444E-02 -49.93994 
 14            1.685218E-02 -1.997702E-02  2.613575E-02 -49.84975 
 15            1.823843E-02 -2.154964E-02  2.823167E-02 -49.75726 
 16            1.908551E-02 -2.247075E-02  2.948205E-02 -49.65713 
J              1.934452E-02 -2.266922E-02  2.980108E-02 -49.52459 
WIRE NO.  3 :
PULSE         REAL          IMAGINARY     MAGNITUDE     PHASE
 NO.          (AMPS)        (AMPS)        (AMPS)        (DEGREES)
J              3.868904E-02 -4.533844E-02  5.960215E-02 -49.52459 
 19            3.871701E-02 -4.572819E-02  5.991723E-02 -49.74617 
 20            3.765806E-02 -4.470146E-02  5.844956E-02 -49.88805 
 21            3.561212E-02 -4.240135E-02  5.537236E-02 -49.97371 
J              3.280216E-02 -3.909194E-02  5.103099E-02 -49.99989 
WIRE NO.  4 :
PULSE         REAL          IMAGINARY     MAGNITUDE     PHASE
 NO.          (AMPS)        (AMPS)        (AMPS)        (DEGREES)
J              1.640108E-02 -1.954597E-02  2.551550E-02 -49.99989 
 23            1.320524E-02 -1.572355E-02  2.053311E-02 -49.97517 
 24            9.312207E-03 -1.107893E-02  1.447273E-02 -49.95184 
 25            4.940124E-03 -5.872341E-03  7.673930E-03 -49.92767 
E              0             0             0             0
WIRE NO.  5 :
PULSE         REAL          IMAGINARY     MAGNITUDE     PHASE
 NO.          (AMPS)        (AMPS)        (AMPS)        (DEGREES)
J              1.640108E-02 -1.954597E-02  2.551550E-02 -49.99989 
 27            1.320524E-02 -1.572355E-02  2.053311E-02 -49.97517 
 28            9.312207E-03 -1.107893E-02  1.447273E-02 -49.95184 
 29            4.940124E-03 -5.872341E-03  7.673930E-03 -49.92767 
E              0             0             0             0

********************     FAR FIELD      ********************

ZENITH ANGLE : INITIAL,INCREMENT,NUMBER: 0 , 10 , 10
AZIMUTH ANGLE: INITIAL,INCREMENT,NUMBER: 0 , 10 , 37

********************    PATTERN DATA    ********************
ZENITH        AZIMUTH       VERTICAL      HORIZONTAL    TOTAL
 ANGLE         ANGLE        PATTERN (DB)  PATTERN (DB)  PATTERN (DB)
 0             0            -999          -289.4567     -289.4567
 10            0            -10.33569     -288.8215     -10.33569
 20            0            -4.413422     -286.3726     -4.413422
 30            0            -1.439185     -283.4994     -1.439185
 40            0            -.445409      -281.2699     -.445409 
 50            0            -1.50513      -278.8115     -1.50513 
 60            0            -3.179252     -278.0559     -3.179252
 70            0            -1.067        -278.8964     -1.067   
 80            0            -.548112      -283.5098     -.548112 
 90            0            -999          -999          -999     
 0             10           -999          -289.5897     -289.4567
 10            10           -10.27425     -35.88393     -10.26233
 20            10           -4.333723     -28.04707     -4.315293
 30            10           -1.334439     -22.10753     -1.298243
 40            10           -.312755      -17.46663     -.229913 
 50            10           -1.352239     -14.25295     -1.135064
 60            10           -3.09696      -12.6714      -2.642576
 70            10           -1.065234     -13.16907     -.805604 
 80            10           -.531945      -17.2136      -.439688 
 90            10           -999          -999          -999     
 0             20           -298.7757     -289.997      -289.4567
 10            20           -10.09822     -30.40656     -10.05795
 20            20           -4.107154     -22.57846     -4.045837
 30            20           -1.039294     -16.65346     -.921676 
 40            20            .058124      -12.03176      .318566 
 50            20           -.924201      -8.839577     -.273605 
 60            20           -2.848876     -7.279013     -1.511676
 70            20           -1.054195     -7.794304     -.219775 
 80            20           -.484948      -11.85058     -.178873 
 90            20           -999          -999          -999     
 0             30           -295.4773     -290.7061     -289.4567
 10            30           -9.83132      -27.82181     -9.762881
 20            30           -3.768417     -20.00714     -3.66637 
 30            30           -.605038      -14.10443     -.415227 
 40            30            .596045      -9.51218       1.000244
 50            30           -.303553      -6.353035      .659786 
 60            30           -2.446292     -4.824775     -.464402 
 70            30           -1.021448     -5.367235      .338266 
 80            30           -.412006      -9.441641      .09966  
 90            30           -999          -999          -999     
 0             40           -293.2954     -291.7717     -289.4567
 10            40           -9.509041     -26.71093     -9.427101
 20            40           -3.366618     -18.91273     -3.247168
 30            40           -.10027       -13.0374       .115135 
 40            40            1.209836     -8.481349      1.652762
 50            40            .401524      -5.362892      1.423084
 60            40           -1.934943     -3.87451       .212962 
 70            40           -.958455      -4.450583      .647712 
 80            40           -.321765      -8.547466      .286962 
 90            40           -999          -999          -999     
 0             50           -291.7717     -293.2954     -289.4567
 10            50           -9.172824     -26.71682     -9.097038
 20            50           -2.955262     -18.93616     -2.847051
 30            50            .405602      -13.08998      .595575 
 40            50            1.812881     -8.572552      2.193149
 50            50            1.088455     -5.497596      1.950202
 60            50           -1.390589     -4.051958      .489776 
 70            50           -.868675      -4.664157      .645953 
 80            50           -.225819      -8.785247      .340692 
 90            50           -999          -999          -999     
 0             60           -290.7061     -295.4773     -289.4567
 10            60           -8.863597     -27.83877     -8.808954
 20            60           -2.58345      -20.07459     -2.506744
 30            60            .853948      -14.25583      .985833 
 40            60            2.337522     -9.774788      2.59666 
 50            60            1.679878     -6.740901      2.263584
 60            60           -.892381      -5.335724      .441323 
 70            60           -.767531      -5.982211      .375162 
 80            60           -.136587      -10.12633      .278273 
 90            60           -999          -999          -999     
 0             70           -289.997      -298.7757     -289.4567
 10            70           -8.616481     -30.43254     -8.587988
 20            70           -2.290509     -22.68181     -2.251002
 30            70            1.201575     -16.88542      1.268522
 40            70            2.738115     -12.4341       2.868145
 50            70            2.126941     -9.433826      2.420011
 60            70           -.501195      -8.061848      .20052  
 70            70           -.675875      -8.736536     -.045203 
 80            70           -.064982      -12.89963      .155438 
 90            70           -999          -999          -999     
 0             80           -289.5897     -999          -289.4567
 10            80           -8.457631     -35.9158      -8.44984 
 20            80           -2.10406      -28.17384     -2.093338
 30            80            1.420366     -22.39207      1.438381
 40            80            2.987527     -17.96017      3.022303
 50            80            2.403133     -14.98191      2.481718
 60            80           -.254351      -13.63171     -.059251 
 70            80           -.6126        -14.32493     -.431685 
 80            80           -.018952      -18.50051      .042221 
 90            80           -999          -999          -999     
 0             90           -289.4567     -999          -289.4567
 10            90           -8.402916     -999          -8.402916
 20            90           -2.040165     -999          -2.040165
 30            90            1.494916     -999           1.494916
 40            90            3.072038     -999           3.072038
 50            90            2.496325     -999           2.496325
 60            90           -.170282      -999          -.170282 
 70            90           -.590098      -999          -.590098 
 80            90           -.003113      -999          -.003113 
 90            90           -999          -999          -999     
 0             100          -289.5897     -999          -289.4567
 10            100          -8.457631     -35.9158      -8.44984 
 20            100          -2.10406      -28.17384     -2.093338
 30            100           1.420366     -22.39207      1.438381
 40            100           2.987527     -17.96017      3.022303
 50            100           2.403133     -14.98191      2.481718
 60            100          -.254351      -13.63171     -.059251 
 70            100          -.6126        -14.32493     -.431685 
 80            100          -.018952      -18.50051      .042221 
 90            100          -999          -999          -999     
 0             110          -289.997      -298.7757     -289.4567
 10            110          -8.616481     -30.43254     -8.587988
 20            110          -2.290509     -22.68181     -2.251002
 30            110           1.201575     -16.88542      1.268522
 40            110           2.738115     -12.4341       2.868145
 50            110           2.126941     -9.433826      2.420011
 60            110          -.501195      -8.061848      .20052  
 70            110          -.675875      -8.736536     -.045203 
 80            110          -.064982      -12.89963      .155438 
 90            110          -999          -999          -999     
 0             120          -290.7061     -295.4773     -289.4567
 10            120          -8.863597     -27.83877     -8.808954
 20            120          -2.58345      -20.07459     -2.506744
 30            120           .853948      -14.25583      .985833 
 40            120           2.337522     -9.774788      2.59666 
 50            120           1.679878     -6.740901      2.263584
 60            120          -.892381      -5.335724      .441323 
 70            120          -.767531      -5.982211      .375162 
 80            120          -.136587      -10.12633      .278273 
 90            120          -999          -999          -999     
 0             130          -291.7717     -293.2954     -289.4567
 10            130          -9.172824     -26.71682     -9.097038
 20            130          -2.955262     -18.93616     -2.847051
 30            130           .405602      -13.08998      .595575 
 40            130           1.812881     -8.572552      2.193149
 50            130           1.088455     -5.497596      1.950202
 60            130          -1.390589     -4.051958      .489776 
 70            130          -.868675      -4.664157      .645953 
 80            130          -.225819      -8.785247      .340692 
 90            130          -999          -999          -999     
 0             140          -293.2954     -291.7717     -289.4567
 10            140          -9.509041     -26.71093     -9.427101
 20            140          -3.366618     -18.91273     -3.247168
 30            140          -.10027       -13.0374       .115135 
 40            140           1.209836     -8.481349      1.652762
 50            140           .401524      -5.362892      1.423084
 60            140          -1.934943     -3.87451       .212962 
 70            140          -.958455      -4.450583      .647712 
 80            140          -.321765      -8.547466      .286962 
 90            140          -999          -999          -999     
 0             150          -295.4773     -290.7061     -289.4567
 10            150          -9.83132      -27.82181     -9.762881
 20            150          -3.768417     -20.00714     -3.66637 
 30            150          -.605038      -14.10443     -.415227 
 40            150           .596045      -9.51218       1.000244
 50            150          -.303553      -6.353035      .659786 
 60            150          -2.446292     -4.824775     -.464402 
 70            150          -1.021448     -5.367235      .338266 
 80            150          -.412006      -9.441641      .09966  
 90            150          -999          -999          -999     
 0             160          -298.7757     -289.997      -289.4567
 10            160          -10.09822     -30.40656     -10.05795
 20            160          -4.107154     -22.57846     -4.045837
 30            160          -1.039294     -16.65346     -.921676 
 40            160           .058124      -12.03176      .318566 
 50            160          -.924201      -8.839577     -.273605 
 60            160          -2.848876     -7.279013     -1.511676
 70            160          -1.054195     -7.794304     -.219775 
 80            160          -.484948      -11.85058     -.178873 
 90            160          -999          -999          -999     
 0             170          -999          -289.5897     -289.4567
 10            170          -10.27425     -35.88393     -10.26233
 20            170          -4.333723     -28.04707     -4.315293
 30            170          -1.334439     -22.10753     -1.298243
 40            170          -.312755      -17.46663     -.229913 
 50            170          -1.352239     -14.25295     -1.135064
 60            170          -3.09696      -12.6714      -2.642576
 70            170          -1.065234     -13.16907     -.805604 
 80            170          -.531945      -17.2136      -.439688 
 90            170          -999          -999          -999     
 0             180          -999          -289.4567     -289.4567
 10            180          -10.33569     -288.8215     -10.33569
 20            180          -4.413422     -286.3726     -4.413422
 30            180          -1.439185     -283.4994     -1.439185
 40            180          -.445409      -281.2699     -.445409 
 50            180          -1.50513      -278.8477     -1.50513 
 60            180          -3.179252     -278.0559     -3.179252
 70            180          -1.067        -279.05       -1.067   
 80            180          -.548112      -283.5092     -.548112 
 90            180          -999          -999          -999     
 0             190          -999          -289.5897     -289.4567
 10            190          -10.27425     -35.88393     -10.26233
 20            190          -4.333723     -28.04707     -4.315293
 30            190          -1.334439     -22.10753     -1.298243
 40            190          -.312755      -17.46663     -.229913 
 50            190          -1.352239     -14.25295     -1.135064
 60            190          -3.09696      -12.6714      -2.642576
 70            190          -1.065234     -13.16907     -.805604 
 80            190          -.531945      -17.2136      -.439688 
 90            190          -999          -999          -999     
 0             200          -298.7757     -289.997      -289.4567
 10            200          -10.09822     -30.40656     -10.05795
 20            200          -4.107154     -22.57846     -4.045837
 30            200          -1.039294     -16.65346     -.921676 
 40            200           .058124      -12.03176      .318566 
 50            200          -.924201      -8.839577     -.273605 
 60            200          -2.848876     -7.279013     -1.511676
 70            200          -1.054195     -7.794304     -.219775 
 80            200          -.484948      -11.85058     -.178873 
 90            200          -999          -999          -999     
 0             210          -295.4773     -290.7061     -289.4567
 10            210          -9.83132      -27.82181     -9.762881
 20            210          -3.768417     -20.00714     -3.66637 
 30            210          -.605038      -14.10443     -.415227 
 40            210           .596045      -9.51218       1.000244
 50            210          -.303553      -6.353035      .659786 
 60            210          -2.446292     -4.824775     -.464402 
 70            210          -1.021448     -5.367235      .338266 
 80            210          -.412006      -9.441641      .09966  
 90            210          -999          -999          -999     
 0             220          -293.2954     -291.7717     -289.4567
 10            220          -9.509041     -26.71093     -9.427101
 20            220          -3.366618     -18.91273     -3.247168
 30            220          -.10027       -13.0374       .115135 
 40            220           1.209836     -8.481349      1.652762
 50            220           .401524      -5.362892      1.423084
 60            220          -1.934943     -3.87451       .212962 
 70            220          -.958455      -4.450583      .647712 
 80            220          -.321765      -8.547466      .286962 
 90            220          -999          -999          -999     
 0             230          -291.7717     -293.2954     -289.4567
 10            230          -9.172824     -26.71682     -9.097038
 20            230          -2.955262     -18.93616     -2.847051
 30            230           .405602      -13.08998      .595575 
 40            230           1.812881     -8.572552      2.193149
 50            230           1.088455     -5.497596      1.950202
 60            230          -1.390589     -4.051958      .489776 
 70            230          -.868675      -4.664157      .645953 
 80            230          -.225819      -8.785247      .340692 
 90            230          -999          -999          -999     
 0             240          -290.7061     -295.4773     -289.4567
 10            240          -8.863597     -27.83877     -8.808954
 20            240          -2.58345      -20.07459     -2.506744
 30            240           .853948      -14.25583      .985833 
 40            240           2.337522     -9.774788      2.59666 
 50            240           1.679878     -6.740901      2.263584
 60            240          -.892381      -5.335724      .441323 
 70            240          -.767531      -5.982211      .375162 
 80            240          -.136587      -10.12633      .278273 
 90            240          -999          -999          -999     
 0             250          -289.997      -298.7757     -289.4567
 10            250          -8.616481     -30.43254     -8.587988
 20            250          -2.290509     -22.68181     -2.251002
 30            250           1.201575     -16.88542      1.268522
 40            250           2.738115     -12.4341       2.868145
 50            250           2.126941     -9.433826      2.420011
 60            250          -.501195      -8.061848      .20052  
 70            250          -.675875      -8.736536     -.045203 
 80            250          -.064982      -12.89963      .155438 
 90            250          -999          -999          -999     
 0             260          -289.5897     -999          -289.4567
 10            260          -8.457631     -35.9158      -8.44984 
 20            260          -2.10406      -28.17384     -2.093338
 30            260           1.420366     -22.39207      1.438381
 40            260           2.987527     -17.96017      3.022303
 50            260           2.403133     -14.98191      2.481718
 60            260          -.254351      -13.63171     -.059251 
 70            260          -.6126        -14.32493     -.431685 
 80            260          -.018952      -18.50051      .042221 
 90            260          -999          -999          -999     
 0             270          -289.4567     -999          -289.4567
 10            270          -8.402916     -999          -8.402916
 20            270          -2.040165     -999          -2.040165
 30            270           1.494916     -999           1.494916
 40            270           3.072038     -999           3.072038
 50            270           2.496325     -999           2.496325
 60            270          -.170282      -999          -.170282 
 70            270          -.590098      -999          -.590098 
 80            270          -.003113      -999          -.003113 
 90            270          -999          -999          -999     
 0             280          -289.5897     -999          -289.4567
 10            280          -8.457631     -35.9158      -8.44984 
 20            280          -2.10406      -28.17384     -2.093338
 30            280           1.420366     -22.39207      1.438381
 40            280           2.987527     -17.96017      3.022303
 50            280           2.403133     -14.98191      2.481718
 60            280          -.254351      -13.63171     -.059251 
 70            280          -.6126        -14.32493     -.431685 
 80            280          -.018952      -18.50051      .042221 
 90            280          -999          -999          -999     
 0             290          -289.997      -298.7757     -289.4567
 10            290          -8.616481     -30.43254     -8.587988
 20            290          -2.290509     -22.68181     -2.251002
 30            290           1.201575     -16.88542      1.268522
 40            290           2.738115     -12.4341       2.868145
 50            290           2.126941     -9.433826      2.420011
 60            290          -.501195      -8.061848      .20052  
 70            290          -.675875      -8.736536     -.045203 
 80            290          -.064982      -12.89963      .155438 
 90            290          -999          -999          -999     
 0             300          -290.7061     -295.4773     -289.4567
 10            300          -8.863597     -27.83877     -8.808954
 20            300          -2.58345      -20.07459     -2.506744
 30            300           .853948      -14.25583      .985833 
 40            300           2.337522     -9.774788      2.59666 
 50            300           1.679878     -6.740901      2.263584
 60            300          -.892381      -5.335724      .441323 
 70            300          -.767531      -5.982211      .375162 
 80            300          -.136587      -10.12633      .278273 
 90            300          -999          -999          -999     
 0             310          -291.7717     -293.2954     -289.4567
 10            310          -9.172824     -26.71682     -9.097038
 20            310          -2.955262     -18.93616     -2.847051
 30            310           .405602      -13.08998      .595575 
 40            310           1.812881     -8.572552      2.193149
 50            310           1.088455     -5.497596      1.950202
 60            310          -1.390589     -4.051958      .489776 
 70            310          -.868675      -4.664157      .645953 
 80            310          -.225819      -8.785247      .340692 
 90            310          -999          -999          -999     
 0             320          -293.2954     -291.7717     -289.4567
 10            320          -9.509041     -26.71093     -9.427101
 20            320          -3.366618     -18.91273     -3.247168
 30            320          -.10027       -13.0374       .115135 
 40            320           1.209836     -8.481349      1.652762
 50            320           .401524      -5.362892      1.423084
 60            320          -1.934943     -3.87451       .212962 
 70            320          -.958455      -4.450583      .647712 
 80            320          -.321765      -8.547466      .286962 
 90            320          -999          -999          -999     
 0             330          -295.4773     -290.7061     -289.4567
 10            330          -9.83132      -27.82181     -9.762881
 20            330          -3.768417     -20.00714     -3.66637 
 30            330          -.605038      -14.10443     -.415227 
 40            330           .596045      -9.51218       1.000244
 50            330          -.303553      -6.353035      .659786 
 60            330          -2.446292     -4.824775     -.464402 
 70            330          -1.021448     -5.367235      .338266 
 80            330          -.412006      -9.441641      .09966  
 90            330          -999          -999          -999     
 0             340          -298.7757     -289.997      -289.4567
 10            340          -10.09822     -30.40656     -10.05795
 20            340          -4.107154     -22.57846     -4.045837
 30            340          -1.039294     -16.65346     -.921676 
 40            340           .058124      -12.03176      .318566 
 50            340          -.924201      -8.839577     -.273605 
 60            340          -2.848876     -7.279013     -1.511676
 70            340          -1.054195     -7.794304     -.219775 
 80            340          -.484948      -11.85058     -.178873 
 90            340          -999          -999          -999     
 0             350          -999          -289.5897     -289.4567
 10            350          -10.27425     -35.88393     -10.26233
 20            350          -4.333723     -28.04707     -4.315293
 30            350          -1.334439     -22.10753     -1.298243
 40            350          -.312755      -17.46663     -.229913 
 50            350          -1.352239     -14.25295     -1.135064
 60            350          -3.09696      -12.6714      -2.642576
 70            350          -1.065234     -13.16907     -.805604 
 80            350          -.531945      -17.2136      -.439688 
 90            350          -999          -999          -999     
 0             360          -999          -289.4567     -289.4567
 10            360          -10.33569     -288.8215     -10.33569
 20            360          -4.413422     -286.3726     -4.413422
 30            360          -1.439185     -283.4994     -1.439185
 40            360          -.445409      -280.9937     -.445409 
 50            360          -1.50513      -278.5259     -1.50513 
 60            360          -3.179252     -277.8452     -3.179252
 70            360          -1.067        -278.6596     -1.067   
 80            360          -.548112      -283.7055     -.548112 
 90            360          -999          -999          -999     
