                   ****************************************
                     MINI-NUMERICAL ELECTROMAGNETICS CODE
                                   MININEC
                   ****************************************

FREQUENCY (MHZ): 14
    WAVE LENGTH =  21.41429  METERS

ENVIRONMENT (+1 FOR FREE SPACE, -1 FOR GROUND PLANE): -1
 NUMBER OF MEDIA (0 FOR PERFECTLY CONDUCTING GROUND):  1
 RELATIVE DIELECTRIC CONSTANT, CONDUCTIVITY:  13 , .005

NO. OF GEO-OBJECTS: 5

WIRE NO. 1
            COORDINATES                                 END         NO. OF
   X             Y             Z          RADIUS     CONNECTION     SEGMENTS
 0            -5.4864        10                         0
 0             0             10            .001005      0              9

WIRE NO. 2
            COORDINATES                                 END         NO. OF
   X             Y             Z          RADIUS     CONNECTION     SEGMENTS
 0             5.4864        10                         0
 0             0             10            .001005     -1              9

WIRE NO. 3
            COORDINATES                                 END         NO. OF
   X             Y             Z          RADIUS     CONNECTION     SEGMENTS
 0             0             10                         1
 0             0             12.4384       .001005      0              4

WIRE NO. 4
            COORDINATES                                 END         NO. OF
   X             Y             Z          RADIUS     CONNECTION     SEGMENTS
 0             0             12.4384                    3
 0            -2.4384        12.4384       .001005      0              4

WIRE NO. 5
            COORDINATES                                 END         NO. OF
   X             Y             Z          RADIUS     CONNECTION     SEGMENTS
 0             0             12.4384                    3
 0             2.4384        12.4384       .001005      0              4

                  **** ANTENNA GEOMETRY ****

WIRE NO.  1 COORDINATES                                 CONNECTION PULSE
X             Y             Z             RADIUS        END1 END2  NO.
 0            -4.8768        10            .001005       0    1   1
 0            -4.2672        10            .001005       1    1   2
 0            -3.6576        10            .001005       1    1   3
 0            -3.048         10            .001005       1    1   4
 0            -2.4384        10            .001005       1    1   5
 0            -1.8288        10            .001005       1    1   6
 0            -1.2192        10            .001005       1    1   7
 0            -.6096         10            .001005       1    0   8

WIRE NO.  2 COORDINATES                                 CONNECTION PULSE
X             Y             Z             RADIUS        END1 END2  NO.
 0             4.8768        10            .001005       0    2   9
 0             4.2672        10            .001005       2    2  10
 0             3.6576        10            .001005       2    2  11
 0             3.048         10            .001005       2    2  12
 0             2.4384        10            .001005       2    2  13
 0             1.8288        10            .001005       2    2  14
 0             1.2192        10            .001005       2    2  15
 0             .6096         10            .001005       2    2  16
 0             0             10            .001005       2   -1  17

WIRE NO.  3 COORDINATES                                 CONNECTION PULSE
X             Y             Z             RADIUS        END1 END2  NO.
 0             0             10            .001005       1    3  18
 0             0             10.6096       .001005       3    3  19
 0             0             11.2192       .001005       3    3  20
 0             0             11.8288       .001005       3    0  21

WIRE NO.  4 COORDINATES                                 CONNECTION PULSE
X             Y             Z             RADIUS        END1 END2  NO.
 0             0             12.4384       .001005       3    4  22
 0            -.6096         12.4384       .001005       4    4  23
 0            -1.2192        12.4384       .001005       4    4  24
 0            -1.8288        12.4384       .001005       4    0  25

WIRE NO.  5 COORDINATES                                 CONNECTION PULSE
X             Y             Z             RADIUS        END1 END2  NO.
 0             0             12.4384       .001005       3    5  26
 0             .6096         12.4384       .001005       5    5  27
 0             1.2192        12.4384       .001005       5    5  28
 0             1.8288        12.4384       .001005       5    0  29

NO. OF SOURCES :  1
PULSE NO., VOLTAGE MAGNITUDE, PHASE (DEGREES): 18 , 1 , 0
NUMBER OF LOADS 0

********************    SOURCE DATA     ********************
PULSE 18      VOLTAGE = ( 1 , 0 J)
              CURRENT = ( 3.868904E-02 , -4.533844E-02 J)
              IMPEDANCE = ( 10.89091 ,  12.7627  J)
              POWER =  1.934452E-02  WATTS

********************    CURRENT DATA    ********************

WIRE NO.  1 :
PULSE         REAL          IMAGINARY     MAGNITUDE     PHASE
 NO.          (AMPS)        (AMPS)        (AMPS)        (DEGREES)
E              0             0             0             0
 1             3.654851E-03 -4.404253E-03  5.723232E-03 -50.31256 
 2             6.944332E-03 -8.339383E-03  1.085215E-02 -50.21533 
 3             9.959192E-03 -1.192017E-02  1.553306E-02 -50.12157 
 4             1.265514E-02 -1.509791E-02  1.970023E-02 -50.0301  
 5             1.497277E-02 -1.780591E-02  2.326444E-02 -49.93994 
 6             1.685218E-02 -1.997702E-02  2.613575E-02 -49.84975 
 7             1.823843E-02 -2.154964E-02  2.823167E-02 -49.75726 
 8             1.908551E-02 -2.247075E-02  2.948205E-02 -49.65713 
J              1.934452E-02 -2.266922E-02  2.980108E-02 -49.52459 
WIRE NO.  2 :
PULSE         REAL          IMAGINARY     MAGNITUDE     PHASE
 NO.          (AMPS)        (AMPS)        (AMPS)        (DEGREES)
E              0             0             0             0
 9             3.654851E-03 -4.404253E-03  5.723232E-03 -50.31256 
 10            6.944332E-03 -8.339383E-03  1.085215E-02 -50.21533 
 11            9.959192E-03 -1.192017E-02  1.553306E-02 -50.12157 
 12            1.265514E-02 -1.509791E-02  1.970023E-02 -50.0301  
 13            1.497277E-02 -1.780591E-02  2.326444E-02 -49.93994 
 14            1.685218E-02 -1.997702E-02  2.613575E-02 -49.84975 
 15            1.823843E-02 -2.154964E-02  2.823167E-02 -49.75726 
 16            1.908551E-02 -2.247075E-02  2.948205E-02 -49.65713 
J              1.934452E-02 -2.266922E-02  2.980108E-02 -49.52459 
WIRE NO.  3 :
PULSE         REAL          IMAGINARY     MAGNITUDE     PHASE
 NO.          (AMPS)        (AMPS)        (AMPS)        (DEGREES)
J              3.868904E-02 -4.533844E-02  5.960215E-02 -49.52459 
 19            3.871701E-02 -4.572819E-02  5.991723E-02 -49.74617 
 20            3.765806E-02 -4.470146E-02  5.844956E-02 -49.88805 
 21            3.561212E-02 -4.240135E-02  5.537236E-02 -49.97371 
J              3.280216E-02 -3.909194E-02  5.103099E-02 -49.99989 
WIRE NO.  4 :
PULSE         REAL          IMAGINARY     MAGNITUDE     PHASE
 NO.          (AMPS)        (AMPS)        (AMPS)        (DEGREES)
J              1.640108E-02 -1.954597E-02  2.551550E-02 -49.99989 
 23            1.320524E-02 -1.572355E-02  2.053311E-02 -49.97517 
 24            9.312207E-03 -1.107893E-02  1.447273E-02 -49.95184 
 25            4.940124E-03 -5.872341E-03  7.673930E-03 -49.92767 
E              0             0             0             0
WIRE NO.  5 :
PULSE         REAL          IMAGINARY     MAGNITUDE     PHASE
 NO.          (AMPS)        (AMPS)        (AMPS)        (DEGREES)
J              1.640108E-02 -1.954597E-02  2.551550E-02 -49.99989 
 27            1.320524E-02 -1.572355E-02  2.053311E-02 -49.97517 
 28            9.312207E-03 -1.107893E-02  1.447273E-02 -49.95184 
 29            4.940124E-03 -5.872341E-03  7.673930E-03 -49.92767 
E              0             0             0             0

********************     FAR FIELD      ********************

ZENITH ANGLE : INITIAL,INCREMENT,NUMBER: 0 , 10 , 10
AZIMUTH ANGLE: INITIAL,INCREMENT,NUMBER: 0 , 10 , 37

********************    PATTERN DATA    ********************
ZENITH        AZIMUTH       VERTICAL      HORIZONTAL    TOTAL
 ANGLE         ANGLE        PATTERN (DB)  PATTERN (DB)  PATTERN (DB)
 0             0            -999          -299.2974     -299.2974
 10            0            -10.33564     -299.6003     -10.33564
 20            0            -4.413369     -298.4475     -4.413369
 30            0            -1.439132     -296.0231     -1.439132
 40            0            -.445355      -293.1117     -.445355 
 50            0            -1.505077     -290.6363     -1.505077
 60            0            -3.179199     -289.4977     -3.179199
 70            0            -1.066946     -290.4286     -1.066946
 80            0            -.548058      -294.6369     -.548058 
 90            0            -999          -999          -999     
 0             10           -999          -299.4304     -299.2974
 10            10           -10.27419     -35.88388     -10.26228
 20            10           -4.33367      -28.04702     -4.31524 
 30            10           -1.334386     -22.10747     -1.29819 
 40            10           -.312701      -17.46658     -.22986  
 50            10           -1.352185     -14.2529      -1.135011
 60            10           -3.096907     -12.67135     -2.642523
 70            10           -1.06518      -13.16902     -.805551 
 80            10           -.531891      -17.21355     -.439635 
 90            10           -999          -999          -999     
 0             20           -999          -299.8377     -299.2974
 10            20           -10.09817     -30.40651     -10.0579 
 20            20           -4.107101     -22.57841     -4.045783
 30            20           -1.039241     -16.65341     -.921623 
 40            20            .058178      -12.0317       .318619 
 50            20           -.924147      -8.839524     -.273552 
 60            20           -2.848823     -7.27896      -1.511623
 70            20           -1.054141     -7.794251     -.219722 
 80            20           -.484895      -11.85052     -.17882  
 90            20           -999          -999          -999     
 0             30           -999          -999          -299.2974
 10            30           -9.831267     -27.82176     -9.762827
 20            30           -3.768363     -20.00709     -3.666317
 30            30           -.604984      -14.10438     -.415174 
 40            30            .596098      -9.512126      1.000297
 50            30           -.303499      -6.352982      .65984  
 60            30           -2.446239     -4.824722     -.464349 
 70            30           -1.021394     -5.367182      .33832  
 80            30           -.411952      -9.441588      .099713 
 90            30           -999          -999          -999     
 0             40           -999          -999          -299.2974
 10            40           -9.508987     -26.71088     -9.427048
 20            40           -3.366565     -18.91268     -3.247115
 30            40           -.100217      -13.03734      .115189 
 40            40            1.209889     -8.481295      1.652815
 50            40            .401577      -5.362839      1.423137
 60            40           -1.93489      -3.874456      .213015 
 70            40           -.958402      -4.45053       .647766 
 80            40           -.321711      -8.547412      .287015 
 90            40           -999          -999          -999     
 0             50           -999          -999          -299.2974
 10            50           -9.17277      -26.71676     -9.096984
 20            50           -2.955209     -18.93611     -2.846998
 30            50            .405655      -13.08993      .595628 
 40            50            1.812935     -8.572498      2.193202
 50            50            1.088509     -5.497543      1.950255
 60            50           -1.390535     -4.051905      .48983  
 70            50           -.868622      -4.664104      .646006 
 80            50           -.225766      -8.785194      .340745 
 90            50           -999          -999          -999     
 0             60           -999          -999          -299.2974
 10            60           -8.863543     -27.83872     -8.808901
 20            60           -2.583397     -20.07454     -2.506691
 30            60            .854002      -14.25578      .985887 
 40            60            2.337575     -9.774735      2.596714
 50            60            1.679931     -6.740847      2.263637
 60            60           -.892328      -5.335671      .441377 
 70            60           -.767478      -5.982158      .375216 
 80            60           -.136534      -10.12627      .278327 
 90            60           -999          -999          -999     
 0             70           -299.8377     -999          -299.2974
 10            70           -8.616428     -30.43249     -8.587934
 20            70           -2.290456     -22.68175     -2.250949
 30            70            1.201628     -16.88537      1.268576
 40            70            2.738168     -12.43404      2.868199
 50            70            2.126994     -9.433773      2.420064
 60            70           -.501142      -8.061795      .200574 
 70            70           -.675822      -8.736483     -.04515  
 80            70           -.064928      -12.89958      .155492 
 90            70           -999          -999          -999     
 0             80           -299.4304     -999          -299.2974
 10            80           -8.457577     -35.91575     -8.449787
 20            80           -2.104007     -28.17379     -2.093285
 30            80            1.420419     -22.39201      1.438434
 40            80            2.987581     -17.96012      3.022356
 50            80            2.403186     -14.98186      2.481772
 60            80           -.254298      -13.63165     -.059198 
 70            80           -.612547      -14.32487     -.431632 
 80            80           -.018899      -18.50046      .042274 
 90            80           -999          -999          -999     
 0             90           -299.2974     -999          -299.2974
 10            90           -8.402863     -999          -8.402863
 20            90           -2.040111     -999          -2.040111
 30            90            1.494969     -999           1.494969
 40            90            3.072091     -999           3.072091
 50            90            2.496379     -999           2.496379
 60            90           -.170229      -999          -.170229 
 70            90           -.590045      -999          -.590045 
 80            90           -.00306       -999          -.00306  
 90            90           -999          -999          -999     
 0             100          -299.4304     -999          -299.2974
 10            100          -8.457577     -35.91575     -8.449787
 20            100          -2.104007     -28.17379     -2.093285
 30            100           1.420419     -22.39201      1.438434
 40            100           2.987581     -17.96012      3.022356
 50            100           2.403186     -14.98186      2.481772
 60            100          -.254298      -13.63165     -.059198 
 70            100          -.612547      -14.32487     -.431632 
 80            100          -.018899      -18.50046      .042274 
 90            100          -999          -999          -999     
 0             110          -299.8377     -999          -299.2974
 10            110          -8.616428     -30.43249     -8.587934
 20            110          -2.290456     -22.68175     -2.250949
 30            110           1.201628     -16.88537      1.268576
 40            110           2.738168     -12.43404      2.868199
 50            110           2.126994     -9.433773      2.420064
 60            110          -.501142      -8.061795      .200574 
 70            110          -.675822      -8.736483     -.04515  
 80            110          -.064928      -12.89958      .155492 
 90            110          -999          -999          -999     
 0             120          -999          -999          -299.2974
 10            120          -8.863543     -27.83872     -8.808901
 20            120          -2.583397     -20.07454     -2.506691
 30            120           .854002      -14.25578      .985887 
 40            120           2.337575     -9.774735      2.596714
 50            120           1.679931     -6.740847      2.263637
 60            120          -.892328      -5.335671      .441377 
 70            120          -.767478      -5.982158      .375216 
 80            120          -.136534      -10.12627      .278327 
 90            120          -999          -999          -999     
 0             130          -999          -999          -299.2974
 10            130          -9.17277      -26.71676     -9.096984
 20            130          -2.955209     -18.93611     -2.846998
 30            130           .405655      -13.08993      .595628 
 40            130           1.812935     -8.572498      2.193202
 50            130           1.088509     -5.497543      1.950255
 60            130          -1.390535     -4.051905      .48983  
 70            130          -.868622      -4.664104      .646006 
 80            130          -.225766      -8.785194      .340745 
 90            130          -999          -999          -999     
 0             140          -999          -999          -299.2974
 10            140          -9.508987     -26.71088     -9.427048
 20            140          -3.366565     -18.91268     -3.247115
 30            140          -.100217      -13.03734      .115189 
 40            140           1.209889     -8.481295      1.652815
 50            140           .401577      -5.362839      1.423137
 60            140          -1.93489      -3.874456      .213015 
 70            140          -.958402      -4.45053       .647766 
 80            140          -.321711      -8.547412      .287015 
 90            140          -999          -999          -999     
 0             150          -999          -999          -299.2974
 10            150          -9.831267     -27.82176     -9.762827
 20            150          -3.768363     -20.00709     -3.666317
 30            150          -.604984      -14.10438     -.415174 
 40            150           .596098      -9.512126      1.000297
 50            150          -.303499      -6.352982      .65984  
 60            150          -2.446239     -4.824722     -.464349 
 70            150          -1.021394     -5.367182      .33832  
 80            150          -.411952      -9.441588      .099713 
 90            150          -999          -999          -999     
 0             160          -999          -299.8377     -299.2974
 10            160          -10.09817     -30.40651     -10.0579 
 20            160          -4.107101     -22.57841     -4.045783
 30            160          -1.039241     -16.65341     -.921623 
 40            160           .058178      -12.0317       .318619 
 50            160          -.924147      -8.839524     -.273552 
 60            160          -2.848823     -7.27896      -1.511623
 70            160          -1.054141     -7.794251     -.219722 
 80            160          -.484895      -11.85052     -.17882  
 90            160          -999          -999          -999     
 0             170          -999          -299.4304     -299.2974
 10            170          -10.27419     -35.88388     -10.26228
 20            170          -4.33367      -28.04702     -4.31524 
 30            170          -1.334386     -22.10747     -1.29819 
 40            170          -.312701      -17.46658     -.22986  
 50            170          -1.352185     -14.2529      -1.135011
 60            170          -3.096907     -12.67135     -2.642523
 70            170          -1.06518      -13.16902     -.805551 
 80            170          -.531891      -17.21355     -.439635 
 90            170          -999          -999          -999     
 0             180          -999          -299.2974     -299.2974
 10            180          -10.33564     -299.6003     -10.33564
 20            180          -4.413369     -298.4475     -4.413369
 30            180          -1.439132     -296.0231     -1.439132
 40            180          -.445355      -293.1117     -.445355 
 50            180          -1.505077     -290.6962     -1.505077
 60            180          -3.179199     -289.7898     -3.179199
 70            180          -1.066946     -290.7763     -1.066946
 80            180          -.548058      -295.0743     -.548058 
 90            180          -999          -999          -999     
 0             190          -999          -299.4304     -299.2974
 10            190          -10.27419     -35.88388     -10.26228
 20            190          -4.33367      -28.04702     -4.31524 
 30            190          -1.334386     -22.10747     -1.29819 
 40            190          -.312701      -17.46658     -.22986  
 50            190          -1.352185     -14.2529      -1.135011
 60            190          -3.096907     -12.67135     -2.642523
 70            190          -1.06518      -13.16902     -.805551 
 80            190          -.531891      -17.21355     -.439635 
 90            190          -999          -999          -999     
 0             200          -999          -299.8377     -299.2974
 10            200          -10.09817     -30.40651     -10.0579 
 20            200          -4.107101     -22.57841     -4.045783
 30            200          -1.039241     -16.65341     -.921623 
 40            200           .058178      -12.0317       .318619 
 50            200          -.924147      -8.839524     -.273552 
 60            200          -2.848823     -7.27896      -1.511623
 70            200          -1.054141     -7.794251     -.219722 
 80            200          -.484895      -11.85052     -.17882  
 90            200          -999          -999          -999     
 0             210          -999          -999          -299.2974
 10            210          -9.831267     -27.82176     -9.762827
 20            210          -3.768363     -20.00709     -3.666317
 30            210          -.604984      -14.10438     -.415174 
 40            210           .596098      -9.512126      1.000297
 50            210          -.303499      -6.352982      .65984  
 60            210          -2.446239     -4.824722     -.464349 
 70            210          -1.021394     -5.367182      .33832  
 80            210          -.411952      -9.441588      .099713 
 90            210          -999          -999          -999     
 0             220          -999          -999          -299.2974
 10            220          -9.508987     -26.71088     -9.427048
 20            220          -3.366565     -18.91268     -3.247115
 30            220          -.100217      -13.03734      .115189 
 40            220           1.209889     -8.481295      1.652815
 50            220           .401577      -5.362839      1.423137
 60            220          -1.93489      -3.874456      .213015 
 70            220          -.958402      -4.45053       .647766 
 80            220          -.321711      -8.547412      .287015 
 90            220          -999          -999          -999     
 0             230          -999          -999          -299.2974
 10            230          -9.17277      -26.71676     -9.096984
 20            230          -2.955209     -18.93611     -2.846998
 30            230           .405655      -13.08993      .595628 
 40            230           1.812935     -8.572498      2.193202
 50            230           1.088509     -5.497543      1.950255
 60            230          -1.390535     -4.051905      .48983  
 70            230          -.868622      -4.664104      .646006 
 80            230          -.225766      -8.785194      .340745 
 90            230          -999          -999          -999     
 0             240          -999          -999          -299.2974
 10            240          -8.863543     -27.83872     -8.808901
 20            240          -2.583397     -20.07454     -2.506691
 30            240           .854002      -14.25578      .985887 
 40            240           2.337575     -9.774735      2.596714
 50            240           1.679931     -6.740847      2.263637
 60            240          -.892328      -5.335671      .441377 
 70            240          -.767478      -5.982158      .375216 
 80            240          -.136534      -10.12627      .278327 
 90            240          -999          -999          -999     
 0             250          -299.8377     -999          -299.2974
 10            250          -8.616428     -30.43249     -8.587934
 20            250          -2.290456     -22.68175     -2.250949
 30            250           1.201628     -16.88537      1.268576
 40            250           2.738168     -12.43404      2.868199
 50            250           2.126994     -9.433773      2.420064
 60            250          -.501142      -8.061795      .200574 
 70            250          -.675822      -8.736483     -.04515  
 80            250          -.064928      -12.89958      .155492 
 90            250          -999          -999          -999     
 0             260          -299.4304     -999          -299.2974
 10            260          -8.457577     -35.91575     -8.449787
 20            260          -2.104007     -28.17379     -2.093285
 30            260           1.420419     -22.39201      1.438434
 40            260           2.987581     -17.96012      3.022356
 50            260           2.403186     -14.98186      2.481772
 60            260          -.254298      -13.63165     -.059198 
 70            260          -.612547      -14.32487     -.431632 
 80            260          -.018899      -18.50046      .042274 
 90            260          -999          -999          -999     
 0             270          -299.2974     -999          -299.2974
 10            270          -8.402863     -999          -8.402863
 20            270          -2.040111     -999          -2.040111
 30            270           1.494969     -999           1.494969
 40            270           3.072091     -999           3.072091
 50            270           2.496379     -999           2.496379
 60            270          -.170229      -999          -.170229 
 70            270          -.590045      -999          -.590045 
 80            270          -.00306       -999          -.00306  
 90            270          -999          -999          -999     
 0             280          -299.4304     -999          -299.2974
 10            280          -8.457577     -35.91575     -8.449787
 20            280          -2.104007     -28.17379     -2.093285
 30            280           1.420419     -22.39201      1.438434
 40            280           2.987581     -17.96012      3.022356
 50            280           2.403186     -14.98186      2.481772
 60            280          -.254298      -13.63165     -.059198 
 70            280          -.612547      -14.32487     -.431632 
 80            280          -.018899      -18.50046      .042274 
 90            280          -999          -999          -999     
 0             290          -299.8377     -999          -299.2974
 10            290          -8.616428     -30.43249     -8.587934
 20            290          -2.290456     -22.68175     -2.250949
 30            290           1.201628     -16.88537      1.268576
 40            290           2.738168     -12.43404      2.868199
 50            290           2.126994     -9.433773      2.420064
 60            290          -.501142      -8.061795      .200574 
 70            290          -.675822      -8.736483     -.04515  
 80            290          -.064928      -12.89958      .155492 
 90            290          -999          -999          -999     
 0             300          -999          -999          -299.2974
 10            300          -8.863543     -27.83872     -8.808901
 20            300          -2.583397     -20.07454     -2.506691
 30            300           .854002      -14.25578      .985887 
 40            300           2.337575     -9.774735      2.596714
 50            300           1.679931     -6.740847      2.263637
 60            300          -.892328      -5.335671      .441377 
 70            300          -.767478      -5.982158      .375216 
 80            300          -.136534      -10.12627      .278327 
 90            300          -999          -999          -999     
 0             310          -999          -999          -299.2974
 10            310          -9.17277      -26.71676     -9.096984
 20            310          -2.955209     -18.93611     -2.846998
 30            310           .405655      -13.08993      .595628 
 40            310           1.812935     -8.572498      2.193202
 50            310           1.088509     -5.497543      1.950255
 60            310          -1.390535     -4.051905      .48983  
 70            310          -.868622      -4.664104      .646006 
 80            310          -.225766      -8.785194      .340745 
 90            310          -999          -999          -999     
 0             320          -999          -999          -299.2974
 10            320          -9.508987     -26.71088     -9.427048
 20            320          -3.366565     -18.91268     -3.247115
 30            320          -.100217      -13.03734      .115189 
 40            320           1.209889     -8.481295      1.652815
 50            320           .401577      -5.362839      1.423137
 60            320          -1.93489      -3.874456      .213015 
 70            320          -.958402      -4.45053       .647766 
 80            320          -.321711      -8.547412      .287015 
 90            320          -999          -999          -999     
 0             330          -999          -999          -299.2974
 10            330          -9.831267     -27.82176     -9.762827
 20            330          -3.768363     -20.00709     -3.666317
 30            330          -.604984      -14.10438     -.415174 
 40            330           .596098      -9.512126      1.000297
 50            330          -.303499      -6.352982      .65984  
 60            330          -2.446239     -4.824722     -.464349 
 70            330          -1.021394     -5.367182      .33832  
 80            330          -.411952      -9.441588      .099713 
 90            330          -999          -999          -999     
 0             340          -999          -299.8377     -299.2974
 10            340          -10.09817     -30.40651     -10.0579 
 20            340          -4.107101     -22.57841     -4.045783
 30            340          -1.039241     -16.65341     -.921623 
 40            340           .058178      -12.0317       .318619 
 50            340          -.924147      -8.839524     -.273552 
 60            340          -2.848823     -7.27896      -1.511623
 70            340          -1.054141     -7.794251     -.219722 
 80            340          -.484895      -11.85052     -.17882  
 90            340          -999          -999          -999     
 0             350          -999          -299.4304     -299.2974
 10            350          -10.27419     -35.88388     -10.26228
 20            350          -4.33367      -28.04702     -4.31524 
 30            350          -1.334386     -22.10747     -1.29819 
 40            350          -.312701      -17.46658     -.22986  
 50            350          -1.352185     -14.2529      -1.135011
 60            350          -3.096907     -12.67135     -2.642523
 70            350          -1.06518      -13.16902     -.805551 
 80            350          -.531891      -17.21355     -.439635 
 90            350          -999          -999          -999     
 0             360          -999          -299.2974     -299.2974
 10            360          -10.33564     -299.6003     -10.33564
 20            360          -4.413369     -298.4475     -4.413369
 30            360          -1.439132     -296.0231     -1.439132
 40            360          -.445355      -292.5029     -.445355 
 50            360          -1.505077     -289.6528     -1.505077
 60            360          -3.179199     -288.4827     -3.179199
 70            360          -1.066946     -289.1509     -1.066946
 80            360          -.548058      -293.523      -.548058 
 90            360          -999          -999          -999     