                   ****************************************
                     MINI-NUMERICAL ELECTROMAGNETICS CODE
                                   MININEC
                       07-03-2023              21:14:27
                   ****************************************
 
FREQUENCY (MHZ): 14 
    WAVE LENGTH =  21.41429  METERS
 
ENVIRONMENT (+1 FOR FREE SPACE, -1 FOR GROUND PLANE): -1 
 NUMBER OF MEDIA (0 FOR PERFECTLY CONDUCTING GROUND):  1 
 RELATIVE DIELECTRIC CONSTANT, CONDUCTIVITY:  13 , .005 
 
NO. OF WIRES: 5 
 
WIRE NO. 1 
            COORDINATES                                 END         NO. OF
   X             Y             Z          RADIUS     CONNECTION     SEGMENTS
 0            -5.4864        10                          0 
 0             0             10            1.00584E-03   0             9 
 
WIRE NO. 2 
            COORDINATES                                 END         NO. OF
   X             Y             Z          RADIUS     CONNECTION     SEGMENTS
 0             5.4864        10                          0 
 0             0             10            1.00584E-03  -1             9 
 
WIRE NO. 3 
            COORDINATES                                 END         NO. OF
   X             Y             Z          RADIUS     CONNECTION     SEGMENTS
 0             0             10                          1 
 0             0             12.4384       1.00584E-03   0             4 
 
WIRE NO. 4 
            COORDINATES                                 END         NO. OF
   X             Y             Z          RADIUS     CONNECTION     SEGMENTS
 0             0             12.4384                     3 
 0            -2.4384        12.4384       1.00584E-03   0             4 
 
WIRE NO. 5 
            COORDINATES                                 END         NO. OF
   X             Y             Z          RADIUS     CONNECTION     SEGMENTS
 0             0             12.4384                     3 
 0             2.4384        12.4384       1.00584E-03   0             4 
 
                  **** ANTENNA GEOMETRY ****
 
WIRE NO.  1  COORDINATES                                CONNECTION PULSE
X             Y             Z             RADIUS        END1 END2  NO.
 0            -4.8768        10            1.00584E-03    0    1    1
 0            -4.2672        10            1.00584E-03    1    1    2
 0            -3.6576        10            1.00584E-03    1    1    3
 0            -3.048         10            1.00584E-03    1    1    4
 0            -2.4384        10            1.00584E-03    1    1    5
 0            -1.8288        10            1.00584E-03    1    1    6
 0            -1.2192        10            1.00584E-03    1    1    7
 0            -.6096001      10            1.00584E-03    1    0    8
 
WIRE NO.  2  COORDINATES                                CONNECTION PULSE
X             Y             Z             RADIUS        END1 END2  NO.
 0             4.8768        10            1.00584E-03    0    2    9
 0             4.2672        10            1.00584E-03    2    2   10
 0             3.6576        10            1.00584E-03    2    2   11
 0             3.048         10            1.00584E-03    2    2   12
 0             2.4384        10            1.00584E-03    2    2   13
 0             1.8288        10            1.00584E-03    2    2   14
 0             1.2192        10            1.00584E-03    2    2   15
 0             .6096001      10            1.00584E-03    2    2   16
 0             0             10            1.00584E-03    2   -1   17
 
WIRE NO.  3  COORDINATES                                CONNECTION PULSE
X             Y             Z             RADIUS        END1 END2  NO.
 0             0             10            1.00584E-03    1    3   18
 0             0             10.6096       1.00584E-03    3    3   19
 0             0             11.2192       1.00584E-03    3    3   20
 0             0             11.8288       1.00584E-03    3    0   21
 
WIRE NO.  4  COORDINATES                                CONNECTION PULSE
X             Y             Z             RADIUS        END1 END2  NO.
 0             0             12.4384       1.00584E-03    3    4   22
 0            -.6096         12.4384       1.00584E-03    4    4   23
 0            -1.2192        12.4384       1.00584E-03    4    4   24
 0            -1.8288        12.4384       1.00584E-03    4    0   25
 
WIRE NO.  5  COORDINATES                                CONNECTION PULSE
X             Y             Z             RADIUS        END1 END2  NO.
 0             0             12.4384       1.00584E-03    3    5   26
 0             .6096         12.4384       1.00584E-03    5    5   27
 0             1.2192        12.4384       1.00584E-03    5    5   28
 0             1.8288        12.4384       1.00584E-03    5    0   29
 
NO. OF SOURCES :  1 
PULSE NO., VOLTAGE MAGNITUDE, PHASE (DEGREES):  18 , 1 , 0 
NUMBER OF LOADS 0 
 
********************    SOURCE DATA     ********************
PULSE  18     VOLTAGE = ( 1 , 0 J)
              CURRENT = ( 3.867625E-02 ,-4.533635E-02 J)
              IMPEDANCE = ( 10.89092 , 12.76636 J)
              POWER =  1.933812E-02  WATTS
 
********************    CURRENT DATA    ********************
 
WIRE NO.  1 :
PULSE         REAL          IMAGINARY     MAGNITUDE     PHASE
 NO.          (AMPS)        (AMPS)        (AMPS)        (DEGREES)
E              0             0             0             0 
 1             3.653728E-03 -4.404042E-03  5.722352E-03 -50.31986 
 2             .0069422     -8.338984E-03  1.085047E-02 -50.22264 
 3             9.956139E-03 -1.191961E-02  1.553067E-02 -50.12887 
 4             1.265126E-02 -1.509719E-02  1.969719E-02 -50.0374 
 5             1.496819E-02 -1.780506E-02  2.326084E-02 -49.94722 
 6             1.684703E-02 -1.997607E-02  .0261317     -49.85704 
 7             1.823287E-02 -2.154862E-02  .0282273     -49.76455 
 8             1.907968E-02 -2.246969E-02  2.947747E-02 -49.66442 
J              .0193386     -2.266814E-02  2.979641E-02 -49.53189 
 
WIRE NO.  2 :
PULSE         REAL          IMAGINARY     MAGNITUDE     PHASE
 NO.          (AMPS)        (AMPS)        (AMPS)        (DEGREES)
E              0             0             0             0 
 9             3.653545E-03 -4.404057E-03  5.722246E-03 -50.32136 
 10            6.941861E-03 -8.339017E-03  1.085028E-02 -50.22413 
 11            9.955655E-03 -1.191966E-02  .0155304     -50.13036 
 12            1.265065E-02 -1.509726E-02  1.969685E-02 -50.0389 
 13            1.496747E-02 -1.780515E-02  2.326045E-02 -49.94873 
 14            1.684621E-02 -1.997617E-02  2.613125E-02 -49.85855 
 15            1.823196E-02 -2.154871E-02  2.822678E-02 -49.76606 
 16            1.907873E-02 -2.246977E-02  2.947692E-02 -49.66593 
J              1.933764E-02 -2.266821E-02  2.979584E-02 -49.5334 
 
WIRE NO.  3 :
PULSE         REAL          IMAGINARY     MAGNITUDE     PHASE
 NO.          (AMPS)        (AMPS)        (AMPS)        (DEGREES)
J              3.867625E-02 -4.533635E-02  5.959225E-02 -49.53264 
 19            3.870421E-02 -4.572608E-02  5.990734E-02 -49.75421 
 20            3.764561E-02 -4.469944E-02  5.843998E-02 -49.89611 
 21            3.560036E-02 -4.239945E-02  5.536333E-02 -49.98176 
J              3.279134E-02 -3.909019E-02  5.102268E-02 -50.00794 
 
WIRE NO.  4 :
PULSE         REAL          IMAGINARY     MAGNITUDE     PHASE
 NO.          (AMPS)        (AMPS)        (AMPS)        (DEGREES)
J              1.639563E-02 -1.954503E-02  2.551127E-02 -50.0079 
 23            1.320086E-02 -.0157228      2.052971E-02 -49.98318 
 24            9.309121E-03 -.0110784      1.447034E-02 -49.95984 
 25            4.93849E-03  -5.872059E-03  7.672663E-03 -49.93566 
E              0             0             0             0 
 
WIRE NO.  5 :
PULSE         REAL          IMAGINARY     MAGNITUDE     PHASE
 NO.          (AMPS)        (AMPS)        (AMPS)        (DEGREES)
J              .0163957     -1.954516E-02  2.551141E-02 -50.00797 
 27            1.320091E-02 -.0157229      2.052982E-02 -49.98327 
 28            9.309152E-03 -1.107848E-02  1.447042E-02 -49.95994 
 29            4.938504E-03 -.0058721      7.672703E-03 -49.93577 
E              0             0             0             0 
 
********************     FAR FIELD      ********************
 
ZENITH ANGLE : INITIAL,INCREMENT,NUMBER:  0 , 10 , 10 
AZIMUTH ANGLE: INITIAL,INCREMENT,NUMBER:  0 , 10 , 37 
 
 
FILENAME (NAME.OUT): LZH20.GNN
 
********************    PATTERN DATA    ********************
ZENITH        AZIMUTH       VERTICAL      HORIZONTAL    TOTAL
 ANGLE         ANGLE        PATTERN (DB)  PATTERN (DB)  PATTERN (DB)
 0             0            -999          -97.04566     -97.04566 
 10            0            -10.33581     -96.54716     -10.33581 
 20            0            -4.41347      -94.7801      -4.41347 
 30            0            -1.439194     -91.89793     -1.439194 
 40            0            -.4454052     -88.99356     -.4454052 
 50            0            -1.505141     -86.91049     -1.505141 
 60            0            -3.179284     -86.09067     -3.179284 
 70            0            -1.067003     -87.12478     -1.067003 
 80            0            -.5481105     -91.41748     -.5481105 
 90            0            -122.0269     -139.3888     -121.9479 
 0             10           -112.2524     -97.17863     -97.04566 
 10            10           -10.27444     -35.89176     -10.26254 
 20            10           -4.333812     -28.05094     -4.315397 
 30            10           -1.334484     -22.11016     -1.298307 
 40            10           -.3127878     -17.46871     -.2299798 
 50            10           -1.35229      -14.25473     -1.135188 
 60            10           -3.097025     -12.673       -2.642777 
 70            10           -1.065248     -13.17059     -.8056938 
 80            10           -.5319514     -17.21512     -.4397207 
 90            10           -122.0021     -137.7085     -121.8869 
 0             20           -106.3648     -97.58595     -97.04566 
 10            20           -10.09847     -30.41068     -10.05823 
 20            20           -4.107278     -22.58051     -4.045982 
 30            20           -1.039368     -16.65486     -.9217789 
 40            20            5.806345E-02 -12.03284      .3184572 
 50            20           -.9242831     -8.840489     -.2737814 
 60            20           -2.848971     -7.279828     -1.51193 
 70            20           -1.054221     -7.795081     -.2199067 
 80            20           -.4849603     -11.85138     -.1789252 
 90            20           -121.9316     -137.0601     -121.8003 
 0             30           -103.0663     -98.29507     -97.04566 
 10            30           -9.831621     -27.8247      -9.763218 
 20            30           -3.768569     -20.00859     -3.666546 
 30            30           -.6051326     -14.10542     -.4153505 
 40            30            .5959669     -9.51293       1.000123 
 50            30           -.3036515     -6.353649      .6596125 
 60            30           -2.44641      -4.825322     -.4646411 
 70            30           -1.021484     -5.367755      .3381318 
 80            30           -.4120237     -9.442197      9.960166E-02 
 90            30           -121.8263     -132.0646     -121.4335 
 0             40           -100.8844     -99.3606      -97.04566 
 10            40           -9.509385     -26.71325     -9.427479 
 20            40           -3.36679      -18.91391     -3.247361 
 30            40           -.1003769     -13.03818      .1150069 
 40            40            1.209749     -8.481943      1.652643 
 50            40            .4014167     -5.363374      1.422927 
 60            40           -1.935076     -3.874928      .2127548 
 70            40           -.9585019     -4.450988      .6475892 
 80            40           -.3217872     -8.547898      .2869074 
 90            40           -121.7016     -132.2321     -121.3333 
 0             50           -99.3606      -100.8844     -97.04566 
 10            50           -9.173201     -26.71882     -9.097439 
 20            50           -2.955447     -18.93718     -2.84725 
 30            50            .4054879     -13.09066      .5954466 
 40            50            1.812793     -8.573059      2.19304 
 50            50            1.088349     -5.498005      1.950067 
 60            50           -1.390726     -4.052313      .4895975 
 70            50           -.8687304     -4.664499      .6458463 
 80            50           -.225844      -8.785629      .3406436 
 90            50           -121.5747     -129.4215     -120.9145 
 0             60           -98.29507     -103.0663     -97.04566 
 10            60           -8.863998     -27.84059     -8.80937 
 20            60           -2.583644     -20.07554     -2.506947 
 30            60            .8538332     -14.25647      .9857099 
 40            60            2.337435     -9.77526       2.596563 
 50            60            1.679776     -6.741283      2.263468 
 60            60           -.8925172     -5.336056      .4411671 
 70            60           -.7675908     -5.982532      .375072 
 80            60           -.1366139     -10.12669      .2782331 
 90            60           -121.4611     -130.6538     -120.9673 
 0             70           -97.58595     -106.3648     -97.04566 
 10            70           -8.616891     -30.43427     -8.588404 
 20            70           -2.290706     -22.68273     -2.251202 
 30            70            1.20146      -16.88605      1.268404 
 40            70            2.738032     -12.43457      2.868058 
 50            70            2.126847     -9.434211      2.419911 
 60            70           -.5013294     -8.062189      .2003783 
 70            70           -.6759374     -8.736868     -4.528102E-02 
 80            70           -6.500882E-02 -12.9          .1554052 
 90            70           -121.3726     -137.1021     -121.258 
 0             80           -97.17863     -112.2524     -97.04566 
 10            80           -8.458049     -35.91753     -8.45026 
 20            80           -2.104258     -28.17479     -2.093537 
 30            80            1.420252     -22.39274      1.438266 
 40            80            2.987445     -17.9607       3.02222 
 50            80            2.403041     -14.98235      2.481626 
 60            80           -.2544819     -13.6321      -5.938374E-02 
 70            80           -.6126642     -14.32531     -.431753 
 80            80           -1.897983E-02 -18.50094      4.219251E-02 
 90            80           -121.3168     -135.8997     -121.1682 
 0             90           -97.04566     -239.4888     -97.04566 
 10            90           -8.403334     -163.0219     -8.403334 
 20            90           -2.040363     -155.2822     -2.040363 
 30            90            1.494802     -149.5052      1.494802 
 40            90            3.071957     -145.0799      3.071957 
 50            90            2.496234     -142.1093      2.496234 
 60            90           -.1704145     -140.7666     -.1704145 
 70            90           -.590163      -141.4663     -.590163 
 80            90           -3.140625E-03 -145.6462     -3.140625E-03 
 90            90           -121.2978     -268.4989     -121.2978 
 0             100          -97.17863     -112.2524     -97.04566 
 10            100          -8.458049     -35.91753     -8.45026 
 20            100          -2.104258     -28.17479     -2.093537 
 30            100           1.420252     -22.39274      1.438266 
 40            100           2.987445     -17.9607       3.02222 
 50            100           2.403041     -14.98236      2.481626 
 60            100          -.2544819     -13.63211     -5.938374E-02 
 70            100          -.6126642     -14.32532     -.431753 
 80            100          -1.897983E-02 -18.50094      4.219251E-02 
 90            100          -121.3168     -139.1134     -121.2453 
 0             110          -97.58595     -106.3648     -97.04566 
 10            110          -8.616891     -30.43427     -8.588404 
 20            110          -2.290706     -22.68273     -2.251202 
 30            110           1.20146      -16.88605      1.268404 
 40            110           2.738032     -12.43457      2.868058 
 50            110           2.126847     -9.434211      2.419911 
 60            110          -.5013294     -8.062189      .2003783 
 70            110          -.6759374     -8.736868     -4.528102E-02 
 80            110          -6.500882E-02 -12.9          .1554052 
 90            110          -121.3726     -137.1021     -121.258 
 0             120          -98.29507     -103.0663     -97.04566 
 10            120          -8.863998     -27.84059     -8.80937 
 20            120          -2.583644     -20.07554     -2.506947 
 30            120           .8538328     -14.25647      .9857095 
 40            120           2.337435     -9.77526       2.596563 
 50            120           1.679776     -6.741282      2.263468 
 60            120          -.8925172     -5.336053      .4411679 
 70            120          -.7675911     -5.982532      .3750715 
 80            120          -.1366139     -10.12669      .2782331 
 90            120          -121.4611     -131.726      -121.0706 
 0             130          -99.3606      -100.8844     -97.04566 
 10            130          -9.173201     -26.71882     -9.097439 
 20            130          -2.955447     -18.93718     -2.84725 
 30            130           .4054879     -13.09066      .5954466 
 40            130           1.812793     -8.573059      2.19304 
 50            130           1.088349     -5.498005      1.950067 
 60            130          -1.390726     -4.052313      .4895975 
 70            130          -.8687304     -4.664499      .6458463 
 80            130          -.225844      -8.785629      .3406436 
 90            130          -121.5747     -129.4215     -120.9145 
 0             140          -100.8844     -99.3606      -97.04566 
 10            140          -9.509385     -26.71325     -9.427479 
 20            140          -3.36679      -18.91391     -3.247361 
 30            140          -.1003769     -13.03818      .1150069 
 40            140           1.209749     -8.481943      1.652643 
 50            140           .4014167     -5.363374      1.422927 
 60            140          -1.935076     -3.874928      .2127548 
 70            140          -.9585019     -4.450988      .6475892 
 80            140          -.3217872     -8.547898      .2869074 
 90            140          -121.7016     -132.2321     -121.3333 
 0             150          -103.0663     -98.29507     -97.04566 
 10            150          -9.831621     -27.8247      -9.763218 
 20            150          -3.768569     -20.00859     -3.666546 
 30            150          -.6051326     -14.10542     -.4153505 
 40            150           .5959669     -9.51293       1.000123 
 50            150          -.3036515     -6.353649      .6596125 
 60            150          -2.44641      -4.825322     -.4646411 
 70            150          -1.021484     -5.367755      .3381318 
 80            150          -.4120237     -9.442197      9.960166E-02 
 90            150          -121.8263     -132.0646     -121.4335 
 0             160          -106.3648     -97.58595     -97.04566 
 10            160          -10.09847     -30.41068     -10.05824 
 20            160          -4.107278     -22.5805      -4.045982 
 30            160          -1.039368     -16.65485     -.9217786 
 40            160           5.806448E-02 -12.03284      .3184582 
 50            160          -.9242823     -8.840485     -.27378 
 60            160          -2.848971     -7.279827     -1.51193 
 70            160          -1.054221     -7.795079     -.2199067 
 80            160          -.4849603     -11.85137     -.1789252 
 90            160          -121.9316     -136.0716     -121.7674 
 0             170          -112.2524     -97.17863     -97.04566 
 10            170          -10.27444     -35.89176     -10.26254 
 20            170          -4.333812     -28.05094     -4.315397 
 30            170          -1.334484     -22.11016     -1.298306 
 40            170          -.3127878     -17.46871     -.2299798 
 50            170          -1.35229      -14.25473     -1.135188 
 60            170          -3.097025     -12.673       -2.642776 
 70            170          -1.065248     -13.17058     -.8056934 
 80            170          -.5319514     -17.21512     -.439721 
 90            170          -122.0021     -141.7388     -121.9562 
 0             180          -233.4681     -97.04566     -97.04566 
 10            180          -10.33581     -96.57676     -10.33581 
 20            180          -4.41347      -94.79242     -4.41347 
 30            180          -1.439194     -91.89046     -1.439194 
 40            180          -.4454052     -89.00494     -.4454052 
 50            180          -1.505141     -86.92241     -1.505141 
 60            180          -3.179284     -86.13926     -3.179284 
 70            180          -1.067003     -87.15653     -1.067003 
 80            180          -.5481105     -91.44243     -.5481105 
 90            180          -122.0269     -135.9726     -121.8552 
 0             190          -112.2524     -97.17863     -97.04566 
 10            190          -10.2743      -35.87696     -10.26236 
 20            190          -4.333727     -28.04387     -4.315282 
 30            190          -1.33441      -22.10541     -1.298194 
 40            190          -.312712      -17.46496     -.2298346 
 50            190          -1.352205     -14.25151     -1.134951 
 60            190          -3.096955     -12.67009     -2.642424 
 70            190          -1.065226     -13.16786     -.8055136 
 80            190          -.5319362     -17.21248     -.4396505 
 90            190          -122.0021     -138.3589     -121.9027 
 0             200          -106.3648     -97.58595     -97.04566 
 10            200          -10.0982      -30.40315     -10.0579 
 20            200          -4.107115     -22.57692     -4.045773 
 30            200          -1.039227     -16.65245     -.9215769 
 40            200           .058207      -12.03094      .318703 
 50            200          -.9241257     -8.838861     -.2734194 
 60            200          -2.848835     -7.278357     -1.51144 
 70            200          -1.054175     -7.793703     -.2196281 
 80            200          -.4849311     -11.85005     -.1788076 
 90            200          -121.9316     -133.4491     -121.6357 
 0             210          -103.0663     -98.29507     -97.04566 
 10            210          -9.831247     -27.81957     -9.762768 
 20            210          -3.768341     -20.00615     -3.666267 
 30            210          -.6049377     -14.10377     -.4150936 
 40            210           .5961578     -9.511644      1.000411 
 50            210          -.3034433     -6.352551      .6599977 
 60            210          -2.446217     -4.824326     -.464154 
 70            210          -1.021416     -5.366825      .3384315 
 80            210          -.4119813     -9.441299      9.973878E-02 
 90            210          -121.8262     -128.8367     -121.0379 
 0             220          -100.8844     -99.3606      -97.04566 
 10            220          -9.508917     -26.70927     -9.426942 
 20            220          -3.366511     -18.912       -3.247038 
 30            220          -.100144      -13.0369       .1152898 
 40            220           1.209973     -8.480941      1.652943 
 50            220           .401657      -5.362524      1.423295 
 60            220          -1.934842     -3.874166      .213195 
 70            220          -.9584128     -4.450274      .6478715 
 80            220          -.3217348     -8.547219      .2870416 
 90            220          -121.7016     -139.1733     -121.6245 
 0             230          -99.3606      -100.8844     -97.04566 
 10            230          -9.172656     -26.71546     -9.096845 
 20            230          -2.955132     -18.93558     -2.846902 
 30            230           .4057482     -13.08959      .5957417 
 40            230           1.813039     -8.572227      2.193335 
 50            230           1.088609     -5.497296      1.950408 
 60            230          -1.390468     -4.05168       .4899879 
 70            230          -.8686223     -4.663908      .6460966 
 80            230          -.2257829     -8.785059      .3407667 
 90            230          -121.5747     -130.1123     -121.0055 
 0             240          -98.29507     -103.0663     -97.04566 
 10            240          -8.8634       -27.83763     -8.808743 
 20            240          -2.583302     -20.07413     -2.506586 
 30            240           .854108      -14.25553      .9860045 
 40            240           2.33769      -9.774533      2.596846 
 50            240           1.680041     -6.740664      2.263777 
 60            240          -.8922477     -5.335502      .4415117 
 70            240          -.7674692     -5.982018      .3752843 
 80            240          -.1365484     -10.12619      .2783374 
 90            240          -121.4611     -135.5982     -121.2967 
 0             250          -97.58595     -106.3648     -97.04566 
 10            250          -8.616265     -30.43155     -8.587765 
 20            250          -2.290349     -22.68142     -2.250836 
 30            250           1.201744     -16.88519      1.268696 
 40            250           2.738289     -12.43391      2.868328 
 50            250           2.127111     -9.43365       2.420195 
 60            250          -.5010537     -8.061685      .2006883 
 70            250          -.675808      -8.736402     -4.510577E-02 
 80            250          -6.493999E-02 -12.89956      .1554927 
 90            250          -121.3725     -135.1939     -121.196 
 0             260          -97.17863     -112.2525     -97.04566 
 10            260          -8.4574       -35.91493     -8.449607 
 20            260          -2.103892     -28.17356     -2.093169 
 30            260           1.420539     -22.39192      1.438556 
 40            260           2.987707     -17.96007      3.022485 
 50            260           2.403305     -14.98182      2.481894 
 60            260          -.2542068     -13.63163     -5.910007E-02 
 70            260          -.6125298     -14.32488     -.4316064 
 80            260          -1.890807E-02 -18.50052      .0422689 
 90            260          -121.3167     -141.6188     -121.2764 
 0             270          -97.04566     -255.5186     -97.04566 
 10            270          -8.402685     -179.0492     -8.402685 
 20            270          -2.039995     -171.3108     -2.039995 
 30            270           1.495091     -165.5342      1.495091 
 40            270           3.072219     -161.1091      3.072219 
 50            270           2.496499     -158.1386      2.496499 
 60            270          -.1701391     -156.796      -.1701391 
 70            270          -.5900274     -157.4956     -.5900274 
 80            270          -3.069646E-03 -161.6756     -3.069646E-03 
 90            270          -121.2977     -281.561      -121.2977 
 0             280          -97.17863     -112.2524     -97.04566 
 10            280          -8.4574       -35.91493     -8.449607 
 20            280          -2.103892     -28.17356     -2.093169 
 30            280           1.420539     -22.39192      1.438556 
 40            280           2.987707     -17.96007      3.022485 
 50            280           2.403305     -14.98182      2.481894 
 60            280          -.2542068     -13.63163     -.0590998 
 70            280          -.6125295     -14.32487     -.4316061 
 80            280          -1.890807E-02 -18.50051      4.226942E-02 
 90            280          -121.3167     -150.7571     -121.3118 
 0             290          -97.58595     -106.3648     -97.04566 
 10            290          -8.616265     -30.43155     -8.587765 
 20            290          -2.290349     -22.68142     -2.250836 
 30            290           1.201744     -16.88519      1.268696 
 40            290           2.738289     -12.43391      2.868328 
 50            290           2.127111     -9.43365       2.420195 
 60            290          -.5010537     -8.061685      .2006883 
 70            290          -.675808      -8.736402     -4.510577E-02 
 80            290          -6.493999E-02 -12.89956      .1554927 
 90            290          -121.3725     -135.1939     -121.196 
 0             300          -98.29507     -103.0663     -97.04566 
 10            300          -8.8634       -27.83763     -8.808743 
 20            300          -2.583302     -20.07413     -2.506586 
 30            300           .854108      -14.25553      .9860045 
 40            300           2.33769      -9.774533      2.596846 
 50            300           1.680041     -6.740664      2.263777 
 60            300          -.8922477     -5.335502      .4415117 
 70            300          -.7674692     -5.982018      .3752843 
 80            300          -.1365484     -10.12619      .2783374 
 90            300          -121.4611     -135.5982     -121.2967 
 0             310          -99.3606      -100.8844     -97.04566 
 10            310          -9.172656     -26.71546     -9.096845 
 20            310          -2.955132     -18.93558     -2.846902 
 30            310           .4057482     -13.08959      .5957417 
 40            310           1.813039     -8.572227      2.193335 
 50            310           1.088609     -5.497296      1.950408 
 60            310          -1.390468     -4.05168       .4899879 
 70            310          -.8686223     -4.663908      .6460966 
 80            310          -.2257829     -8.785059      .3407667 
 90            310          -121.5747     -130.1123     -121.0055 
 0             320          -100.8844     -99.36062     -97.04566 
 10            320          -9.508917     -26.70927     -9.426942 
 20            320          -3.366512     -18.91201     -3.247038 
 30            320          -.100143      -13.0369       .1152908 
 40            320           1.209974     -8.48094       1.652944 
 50            320           .4016594     -5.362521      1.423297 
 60            320          -1.93484      -3.87416       .213198 
 70            320          -.9584124     -4.450268      .6478737 
 80            320          -.3217348     -8.547218      .2870416 
 90            320          -121.7016     -131.726      -121.2898 
 0             330          -103.0663     -98.29507     -97.04566 
 10            330          -9.831247     -27.81957     -9.762768 
 20            330          -3.76834      -20.00615     -3.666267 
 30            330          -.6049377     -14.10377     -.4150936 
 40            330           .5961587     -9.511638      1.000412 
 50            330          -.3034433     -6.352551      .6599977 
 60            330          -2.446217     -4.824327     -.4641546 
 70            330          -1.021416     -5.366823      .3384325 
 80            330          -.4119813     -9.441302      9.973878E-02 
 90            330          -121.8262     -133.7672     -121.557 
 0             340          -106.3648     -97.58595     -97.04566 
 10            340          -10.0982      -30.40315     -10.0579 
 20            340          -4.107115     -22.57693     -4.045773 
 30            340          -1.039227     -16.65245     -.9215769 
 40            340           .058207      -12.03093      .318703 
 50            340          -.9241257     -8.83886      -.2734189 
 60            340          -2.848834     -7.278354     -1.511439 
 70            340          -1.054175     -7.793699     -.2196273 
 80            340          -.4849311     -11.85006     -.1788081 
 90            340          -121.9316     -143.1792     -121.8991 
 0             350          -112.2524     -97.17863     -97.04566 
 10            350          -10.2743      -35.87696     -10.26236 
 20            350          -4.333727     -28.04386     -4.315282 
 30            350          -1.334409     -22.1054      -1.298193 
 40            350          -.312711      -17.46496     -.2298335 
 50            350          -1.352204     -14.2515      -1.13495 
 60            350          -3.096955     -12.67008     -2.642423 
 70            350          -1.065226     -13.16785     -.805513 
 80            350          -.531935      -17.21248     -.4396493 
 90            350          -122.0021     -140.4707     -121.9407 
 0             360          -227.4474     -97.04566     -97.04566 
 10            360          -10.33581     -96.57676     -10.33581 
 20            360          -4.41347      -94.79242     -4.41347 
 30            360          -1.439194     -91.86012     -1.439194 
 40            360          -.4454052     -88.93254     -.4454052 
 50            360          -1.505141     -86.86064     -1.505141 
 60            360          -3.179284     -86.05795     -3.179284 
 70            360          -1.067003     -87.05093     -1.067003 
 80            360          -.5481105     -91.3781      -.5481105 
 90            360          -122.0269     -147.934      -122.0158 
