                   ****************************************
                     MINI-NUMERICAL ELECTROMAGNETICS CODE
                                   MININEC
                   ****************************************

FREQUENCY (MHZ): 450
    WAVE LENGTH =  .666222  METERS

ENVIRONMENT (+1 FOR FREE SPACE, -1 FOR GROUND PLANE): -1
 NUMBER OF MEDIA (0 FOR PERFECTLY CONDUCTING GROUND):  0

NO. OF GEO-OBJECTS: 4

WIRE NO. 1
            COORDINATES                                 END         NO. OF
   X             Y             Z          RADIUS     CONNECTION     SEGMENTS
 .1125         0             0                         -1
 .035361       .106798       .029866       .00127       0              2

WIRE NO. 2
            COORDINATES                                 END         NO. OF
   X             Y             Z          RADIUS     CONNECTION     SEGMENTS
 .035361       .106798       .029866                    1
-.033866       .107281       .0448         .00127       0              1

WIRE NO. 3
            COORDINATES                                 END         NO. OF
   X             Y             Z          RADIUS     CONNECTION     SEGMENTS
-.033866       .107281       .0448                      2
-.09027        .067138       .059733       .00127       0              1

WIRE NO. 4
            COORDINATES                                 END         NO. OF
   X             Y             Z          RADIUS     CONNECTION     SEGMENTS
-.09027        .067138       .059733                    3
-.112489       .00157        .074666       .00127       0              1

                  **** ANTENNA GEOMETRY ****

WIRE NO.  1 COORDINATES                                 CONNECTION PULSE
X             Y             Z             RADIUS        END1 END2  NO.
 .1125         0             0             .00127       -1    1   1
 .07393        .053399       .014933       .00127        1    0   2

WIRE NO.  2 COORDINATES                                 CONNECTION PULSE
X             Y             Z             RADIUS        END1 END2  NO.
 .035361       .106798       .029866       .00127        1    0   3

WIRE NO.  3 COORDINATES                                 CONNECTION PULSE
X             Y             Z             RADIUS        END1 END2  NO.
-.033866       .107281       .0448         .00127        2    0   4

WIRE NO.  4 COORDINATES                                 CONNECTION PULSE
X             Y             Z             RADIUS        END1 END2  NO.
-.09027        .067138       .059733       .00127        3    0   5

NO. OF SOURCES :  1
PULSE NO., VOLTAGE MAGNITUDE, PHASE (DEGREES):  1 , 1 , 0
NUMBER OF LOADS 0

********************    SOURCE DATA     ********************
PULSE  1      VOLTAGE = ( 1 , 0 J)
              CURRENT = ( 9.325907E-04 , -8.326427E-03 J)
              IMPEDANCE = ( 13.28494 ,  118.6116 J)
              POWER =  4.662953E-04  WATTS

********************    CURRENT DATA    ********************

WIRE NO.  1 :
PULSE         REAL          IMAGINARY     MAGNITUDE     PHASE
 NO.          (AMPS)        (AMPS)        (AMPS)        (DEGREES)
 1             9.325907E-04 -8.326427E-03  8.378491E-03 -83.6093  
 2             9.124367E-04 -4.433385E-03  4.526306E-03 -78.37032 
J              1.063287E-03 -8.439708E-03  8.506424E-03 -82.81935 
WIRE NO.  2 :
PULSE         REAL          IMAGINARY     MAGNITUDE     PHASE
 NO.          (AMPS)        (AMPS)        (AMPS)        (DEGREES)
J              1.063287E-03 -8.439708E-03  8.506424E-03 -82.81935 
J              9.210768E-04 -9.087665E-03  9.134223E-03 -84.21257 
WIRE NO.  3 :
PULSE         REAL          IMAGINARY     MAGNITUDE     PHASE
 NO.          (AMPS)        (AMPS)        (AMPS)        (DEGREES)
J              9.210768E-04 -9.087665E-03  9.134223E-03 -84.21257 
J              5.260979E-04 -5.980733E-03  6.003828E-03 -84.97289 
WIRE NO.  4 :
PULSE         REAL          IMAGINARY     MAGNITUDE     PHASE
 NO.          (AMPS)        (AMPS)        (AMPS)        (DEGREES)
J              5.260979E-04 -5.980733E-03  6.003828E-03 -84.97289 
E              0             0             0             0

********************     FAR FIELD      ********************

ZENITH ANGLE : INITIAL,INCREMENT,NUMBER: 0 , 10 , 10
AZIMUTH ANGLE: INITIAL,INCREMENT,NUMBER: 0 , 10 , 37

********************    PATTERN DATA    ********************
ZENITH        AZIMUTH       VERTICAL      HORIZONTAL    TOTAL
 ANGLE         ANGLE        PATTERN (DB)  PATTERN (DB)  PATTERN (DB)
 0             0             4.787188     -6.102178      5.127383
 10            0             4.688667     -5.92948       5.049896
 20            0             4.400992     -5.749068      4.801489
 30            0             3.96705      -5.751052      4.407373
 40            0             3.462531     -6.122421      3.915872
 50            0             2.986048     -7.042015      3.397431
 60            0             2.625568     -8.744954      2.931311
 70            0             2.415211     -11.7011       2.580357
 80            0             2.325596     -17.38458      2.371776
 90            0             2.30396      -999           2.30396 
 0             10            5.080108     -14.5278       5.127383
 10            10            4.983257     -12.93675      5.052808
 20            10            4.692113     -11.02091      4.807119
 30            10            4.25209      -9.740063      4.421933
 40            10            3.740837     -9.267137      3.952841
 50            10            3.256334     -9.644878      3.473484
 60            10            2.884245     -11.00415      3.058114
 70            10            2.658911     -13.75016      2.757077
 80            10            2.555931     -19.32004      2.584035
 90            10            2.528908     -999           2.528908
 0             20            5.104256     -17.62081      5.127383
 10            20            5.016784     -15.15744      5.058307
 20            20            4.743806     -12.57995      4.823499
 30            20            4.333404     -10.97931      4.459354
 40            20            3.864402     -10.34387      4.026152
 50            20            3.430369     -10.6306       3.597593
 60            20            3.106417     -11.93549      3.240348
 70            20            2.916445     -14.64883      2.991864
 80            20            2.832702     -20.201        2.854247
 90            20            2.811423     -999           2.811423
 0             30            4.861144     -7.130182      5.127383
 10            30            4.791056     -7.055364      5.066048
 20            30            4.557642     -7.027635      4.849117
 30            30            4.21107      -7.18297       4.515217
 40            30            3.829367     -7.678635      4.1259  
 50            30            3.497015     -8.687303      3.752015
 60            30            3.271264     -10.44896      3.451857
 70            30            3.15786      -13.4408       3.251877
 80            30            3.12003      -19.14313      3.145745
 90            30            3.113668     -999           3.113668
 0             40            4.335139     -2.651975      5.127383
 10            40            4.292217     -2.74968       5.075374
 20            40            4.123328     -3.073143      4.881355
 30            40            3.878644     -3.662961      4.583207
 40            40            3.630824     -4.591083      4.240047
 50            40            3.447985     -5.977058      3.917442
 60            40            3.362119     -8.036436      3.665961
 70            40            3.356375     -11.23933      3.504553
 80            40            3.383411     -17.06665      3.42239 
 90            40            3.398331     -999           3.398331
 0             50            3.48916       .099874       5.127383
 10            50            3.487625     -.031767       5.085382
 20            50            3.417878     -.431113       4.916819
 30            50            3.324419     -1.126929      4.656008
 40            50            3.264794     -2.175807      4.356256
 50            50            3.279412     -3.68179       4.075987
 60            50            3.367992     -5.847177      3.859425
 70            50            3.491064     -9.132165      3.722193
 80            50            3.594009     -15.01113      3.653478
 90            50            3.633638     -999           3.633638
 0             60            2.252875      1.976907      5.127383
 10            60            2.317456      1.838825      5.095031
 20            60            2.403675      1.424         4.951703
 30            60            2.534747      .705516       4.726036
 40            60            2.732911     -.370489       4.463011
 50            60            2.995093     -1.904828      4.212659
 60            60            3.285452     -4.096485      4.014303
 70            60            3.548699     -7.402651      3.884254
 80            60            3.731178     -13.29533      3.816461
 90            60            3.796256     -999           3.796256
 0             70            .493939       3.295911      5.127383
 10            70            .676386       3.159354      5.103251
 20            70            1.027527      2.747092      4.982166
 30            70            1.503383      2.031927      4.785991
 40            70            2.051531      .95961        4.550098
 50            70            2.611296     -.571088       4.315601
 60            70            3.120538     -2.75953       4.118111
 70            70            3.524809     -6.063205      3.977847
 80            70            3.78358      -11.95432      3.897938
 90            70            3.872518     -999           3.872518
 0             80           -2.060467      4.206439      5.127383
 10            80           -1.625231      4.0737        5.109068
 20            80           -.767455       3.669235      5.004699
 30            80            .257792       2.965048      4.829343
 40            80            1.267997      1.905701      4.608843
 50            80            2.162574      .388525       4.375812
 60            80            2.890191     -1.787366      4.163182
 70            80            3.42399      -5.080888      3.997208
 80            80            3.749301     -10.96541      3.893539
 90            80            3.858531     -999           3.858531
 0             90           -6.102178      4.787188      5.127383
 10            90           -4.926508      4.658367      5.111716
 20            90           -2.95618       4.261928      5.016497
 30            90           -1.073966      3.569089      4.850872
 40            90            .484002       2.523222      4.632517
 50            90            1.706285      1.020188      4.387071
 60            90            2.622405     -1.142493      4.14606 
 70            90            3.259432     -4.425268      3.942863
 80            90            3.635261     -10.30277      3.807192
 90            90            3.759536     -999           3.759536
 0             100          -14.5278       5.080108      5.127383
 10            100          -9.402978      4.95434       5.11073 
 20            100          -5.037249      4.564074      5.015795
 30            100          -2.14945       3.879945      4.847288
 40            100          -.13077        2.844443      4.617083
 50            100           1.320017      1.352318      4.346497
 60            100           2.354027     -.800139       4.067512
 70            100           3.051648     -4.074568      3.821004
 80            100           3.456109     -9.946614      3.650097
 90            100           3.58878      -999           3.58878 
 0             110          -17.62081      5.104256      5.127383
 10            110          -10.34121      4.980317      5.106016
 20            110          -5.468356      4.593837      5.002147
 30            110          -2.447831      3.915099      4.817858
 40            110          -.383648       2.88605       4.562207
 50            110           1.084272      1.400749      4.255693
 60            110           2.125308     -.745284       3.933291
 70            110           2.826398     -4.014453      3.643376
 80            110           3.232783     -9.883051      3.439708
 90            110           3.366114     -999           3.366114
 0             120          -7.130182      4.861144      5.127383
 10            120          -5.895454      4.737845      5.097867
 20            120          -3.762799      4.353359      4.976571
 30            120          -1.782407      3.67773       4.764859
 40            120          -.183933       2.652528      4.472163
 50            120           1.051262      1.17134       4.122016
 60            120           1.971631     -.970816       3.755279
 70            120           2.611936     -4.236817      3.42756 
 80            120           2.990893     -10.10335      3.198825
 90            120           3.116517     -999           3.116517
 0             130          -2.651975      4.335139      5.127383
 10            130          -2.299641      4.211648      5.086946
 20            130          -1.517748      3.829034      4.941521
 30            130          -.563947       3.156935      4.693661
 40            130           .378952       2.136293      4.35621 
 50            130           1.219972      .659983       3.959297
 60            130           1.915098     -1.477653      3.552232
 70            130           2.435734     -4.740042      3.197083
 80            130           2.758921     -10.60425      2.954645
 90            130           2.868593     -999           2.868593
 0             140           .099874       3.48916       5.127383
 10            140           .197028       3.365338      5.074217
 20            140           .418791       2.987486      4.900645
 30            140           .73531        2.324148      4.612286
 40            140           1.118631      1.31462       4.228031
 50            140           1.540495     -.150023       3.787277
 60            140           1.959926     -2.277041      3.349162
 70            140           2.32099      -5.53108       2.980448
 80            140           2.565969     -11.39         2.737205
 90            140           2.652706     -999           2.652706
 0             150           1.976907      2.252875      5.127383
 10            150           1.96983       2.129771      5.060836
 20            150           1.929555      1.764964      4.858339
 30            150           1.882988      1.124114      4.530405
 40            150           1.873763      .142316       4.104061
 50            150           1.942377     -1.293772      3.629304
 60            150           2.093821     -3.395192      3.174572
 70            150           2.283332     -6.629323      2.808156
 80            150           2.438583     -12.47573      2.576444
 90            150           2.498118     -999           2.498118
 0             160           3.295911      .493939       5.127383
 10            160           3.237199      .37494        5.048022
 20            160           3.060863      .042742       4.81917 
 30            160           2.808161     -.544565       4.457905
 40            160           2.548507     -1.462397      4.000809
 50            160           2.36117      -2.834397      3.508292
 60            160           2.293655     -4.879696      3.055393
 70            160           2.328333     -8.070992      2.707438
 80            160           2.396567     -13.8908       2.497491
 90            160           2.42868      -999           2.42868 
 0             170           4.206439     -2.060467      5.127383
 10            170           4.119425     -2.165622      5.036909
 20            170           3.869524     -2.414244      4.787251
 30            170           3.502624     -2.87147       4.40329 
 40            170           3.097138     -3.641799      3.931763
 50            170           2.749322     -4.873377      3.441837
 60            170           2.531747     -6.801146      3.010736
 70            170           2.45044      -9.905878      2.695812
 80            170           2.448564     -15.67324      2.514981
 90            170           2.457639     -999           2.457639
 0             180           4.787188     -6.102178      5.127383
 10            180           4.684442     -6.154923      5.028423
 20            180           4.397525     -6.134459      4.765694
 30            180           3.97547      -6.216011      4.372334
 40            180           3.500707     -6.609148      3.904761
 50            180           3.075078     -7.520394      3.438121
 60            180           2.780153     -9.204206      3.046807
 70            180           2.633731     -12.14144      2.776008
 80            180           2.589158     -17.81187      2.628577
 90            180           2.583492     -999           2.583492
 0             190           5.080108     -14.5278       5.127383
 10            190           4.969728     -14.1014       5.023184
 20            190           4.671016     -12.35818      4.756246
 30            190           4.236521     -10.91003      4.367311
 40            190           3.751458     -10.25467      3.920766
 50            190           3.317289     -10.49062      3.494345
 60            190           3.012685     -11.74884      3.155402
 70            190           2.85437      -14.42785      2.934821
 80            190           2.799128     -19.95949      2.822077
 90            190           2.789135     -999           2.789135
 0             200           5.104256     -17.62081      5.127383
 10            200           4.992452     -16.749        5.021438
 20            200           4.702459     -14.11165      4.759153
 30            200           4.29081      -12.20839      4.386982
 40            200           3.844718     -11.33994      3.974382
 50            200           3.460828     -11.46627      3.59829 
 60            200           3.205686     -12.66326      3.316688
 70            200           3.084134     -15.30719      3.146583
 80            200           3.049057     -20.8204       3.066838
 90            200           3.045132     -999           3.045132
 0             210           4.861144     -7.130182      5.127383
 10            210           4.7536       -7.183932      5.023056
 20            210           4.492049     -7.254349      4.773245
 30            210           4.136942     -7.466847      4.427218
 40            210           3.775518     -7.986113      4.05576 
 50            210           3.494087     -8.997877      3.732117
 60            210           3.338655     -10.75315      3.504718
 70            210           3.294229     -13.73641      3.379431
 80            210           3.304875     -19.43218      3.327938
 90            210           3.315699     -999           3.315699
 0             220           4.335139     -2.651975      5.127383
 10            220           4.238165     -2.766077      5.027558
 20            220           4.027738     -3.10404       4.796191
 30            220           3.766914     -3.705145      4.481962
 40            220           3.538111     -4.640902      4.152972
 50            220           3.408634     -6.031216      3.876576
 60            220           3.395274     -8.092488      3.693146
 70            220           3.458715     -11.29583      3.601658
 80            220           3.533393     -17.12302      3.57057 
 90            220           3.565039     -999           3.565039
 0             230           3.48916       .099874       5.127383
 10            230           3.411457     -.027336       5.034183
 20            230           3.283667     -.422312       4.82484 
 30            230           3.166905     -1.113895      4.544184
 40            230           3.127832     -2.158789      4.253987
 50            230           3.200807     -3.661177      4.014168
 60            230           3.364997     -5.823523      3.859288
 70            230           3.557246     -9.10619       3.7863  
 80            230           3.706564     -14.9837       3.764886
 90            230           3.762276     -999           3.762276
 0             240           2.252875      1.976907      5.127383
 10            240           2.20941       1.846387      5.041991
 20            240           2.216883      1.438895      4.855587
 30            240           2.32013       .727292       4.60663 
 40            240           2.54589      -.342495       4.347822
 50            240           2.875082     -1.871467      4.130649
 60            240           3.245007     -4.058772      3.986025
 70            240           3.577025     -7.361732      3.913517
 80            240           3.804152     -13.25245      3.888852
 90            240           3.884505     -999           3.884505
 0             250           .493939       3.295911      5.127383
 10            250           .516662       3.165032      5.049969
 20            250           .763528       2.758286      4.884741
 30            250           1.215961      2.048317      4.662349
 40            250           1.809141      .980718       4.424953
 50            250           2.449198     -.545884       4.215189
 60            250           3.042244     -2.730987      4.061958
 70            250           3.514007     -6.032191      3.971204
 80            250           3.815062     -11.92179      3.929447
 90            250           3.918263     -999           3.918263
 0             260          -2.060467      4.206439      5.127383
 10            260          -1.884787      4.076035      5.057157
 20            260          -1.155111      3.673861      4.908881
 30            260          -.121953       2.971872      4.705121
 40            260           .968207       1.914568      4.477414
 50            260           1.960461      .399211       4.259918
 60            260           2.774946     -1.775159      4.080675
 70            260           3.373356     -5.067532      3.954538
 80            260           3.73767      -10.95133      3.882751
 90            260           3.859872     -999           3.859872
 0             270          -6.102178      4.787188      5.127383
 10            270          -5.436732      4.657289      5.062752
 20            270          -3.550547      4.259854      4.925206
 30            270          -1.558164      3.566164      4.729928
 40            270           .134423       2.519632      4.499059
 50            270           1.470674      1.016126      4.259644
 60            270           2.472858     -1.146859      4.03998 
 70            270           3.169094     -4.429805      3.865124
 80            270           3.579416     -10.30739      3.753348
 90            270           3.71501      -999           3.71501 
 0             280          -14.5278       5.080108      5.127383
 10            280          -10.73609      4.95051       5.066208
 20            280          -5.888915      4.556605      4.931866
 30            280          -2.702472      3.86919       4.73353 
 40            280          -.504197       2.830873      4.486205
 50            280           1.063109      1.33647       4.21224 
 60            280           2.174913     -.817714       3.941725
 70            280           2.922892     -4.093337      3.710294
 80            280           3.355831     -9.96608       3.553381
 90            280           3.497733     -999           3.497733
 0             290          -17.62081      5.104256      5.127383
 10            290          -11.70116      4.974926      5.0673  
 20            290          -6.243784      4.583307      4.928225
 30            290          -2.951528      3.899902      4.715068
 40            290          -.737577       2.866821      4.43859 
 50            290           .822836       1.378219      4.1197  
 60            290           1.923428     -.770347       3.792432
 70            290           2.661999     -4.041292      3.502877
 80            290           3.089158     -9.910936      3.301537
 90            290           3.229152     -999           3.229152
 0             300          -7.130182      4.861144      5.127383
 10            300          -6.245877      4.732603      5.066146
 20            300          -4.17238       4.343101      4.91501 
 30            300          -2.139505      3.66288       4.676509
 40            300          -.480368       2.633666      4.360275
 50            300           .802109       1.149149      3.989394
 60            300           1.755262     -.995601       3.604387
 70            300           2.41639      -4.263446      3.261406
 80            300           2.80673      -10.13107      3.022103
 90            300           2.93596      -999           2.93596 
 0             310          -2.651975      4.335139      5.127383
 10            310          -2.418865      4.208934      5.063197
 20            310          -1.711443      3.823645      4.894287
 30            310          -.786871       3.148964      4.622736
 40            310           .150935       2.125903      4.26003 
 50            310           .994658       .647425       3.834811
 60            310           1.69294      -1.492029      3.396407
 70            310           2.215303     -4.755795      3.010222
 80            310           2.539078     -10.62087      2.743961
 90            310           2.648854     -999           2.648854
 0             320           .099874       3.48916       5.127383
 10            320           .143732       3.36861       5.059168
 20            320           .318772       2.993587      4.869231
 30            320           .597147       2.332315      4.561118
 40            320           .948924       1.323971      4.150795
 50            320           1.343615     -.14028        3.675039
 60            320           1.740027     -2.267461      3.193301
 70            320           2.083474     -5.521912      2.778544
 80            320           2.317485     -11.38121      2.498957
 90            320           2.400518     -999           2.400518
 0             330           1.976907      2.252875      5.127383
 10            330           1.94234       2.144598      5.054946
 20            330           1.873392      1.793047      4.843705
 30            330           1.794764      1.162757      4.500547
 40            330           1.747868      .188378       4.048049
 50            330           1.773873     -1.243211      3.532526
 60            330           1.88296      -3.342384      3.023188
 70            330           2.037552     -6.575693      2.597517
 80            330           2.17051      -12.42194      2.318797
 90            330           2.222481     -999           2.222481
 0             340           3.295911      .493939       5.127383
 10            340           3.223205      .411887       5.051463
 20            340           3.029605      .112203       4.821705
 30            340           2.752143     -.449966       4.450056
 40            340           2.45593      -1.350836      3.967239
 50            340           2.219584     -2.713059      3.429173
 60            340           2.097306     -4.753802      2.912526
 70            340           2.083394     -7.943638      2.49487 
 80            340           2.119369     -13.76332      2.230024
 90            340           2.140364     -999           2.140364
 0             350           4.206439     -2.060467      5.127383
 10            350           4.114957     -2.080913      5.049565
 20            350           3.856399     -2.258642      4.806774
 30            350           3.471361     -2.666214      4.417317
 40            350           3.032501     -3.407863      3.920832
 50            350           2.633807     -4.62675       3.381633
 60            350           2.354379     -6.551641      2.879958
 70            350           2.214956     -9.658004      2.488324
 80            350           2.173119     -15.42777      2.247927
 90            350           2.168197     -999           2.168197
 0             360           4.787188     -6.102178      5.127383
 10            360           4.688667     -5.92948       5.049896
 20            360           4.400992     -5.749068      4.801489
 30            360           3.96705      -5.751052      4.407373
 40            360           3.462531     -6.122421      3.915872
 50            360           2.986048     -7.042015      3.397431
 60            360           2.625568     -8.744954      2.931311
 70            360           2.415211     -11.7011       2.580357
 80            360           2.325596     -17.38458      2.371776
 90            360           2.30396      -999           2.30396 