                   ****************************************
                     MINI-NUMERICAL ELECTROMAGNETICS CODE
                                   MININEC
                   ****************************************

FREQUENCY (MHZ): 450
    WAVE LENGTH =  .666222  METERS

ENVIRONMENT (+1 FOR FREE SPACE, -1 FOR GROUND PLANE): -1
 NUMBER OF MEDIA (0 FOR PERFECTLY CONDUCTING GROUND):  0

NO. OF GEO-OBJECTS: 4

WIRE NO. 1
            COORDINATES                                 END         NO. OF
   X             Y             Z          RADIUS     CONNECTION     SEGMENTS
 .1125         0             0                         -1
 .035361       .106798       .029866       .00127       0              2

WIRE NO. 2
            COORDINATES                                 END         NO. OF
   X             Y             Z          RADIUS     CONNECTION     SEGMENTS
 .035361       .106798       .029866                    1
-.033866       .107281       .0448         .00127       0              1

WIRE NO. 3
            COORDINATES                                 END         NO. OF
   X             Y             Z          RADIUS     CONNECTION     SEGMENTS
-.033866       .107281       .0448                      2
-.09027        .067138       .059733       .00127       0              1

WIRE NO. 4
            COORDINATES                                 END         NO. OF
   X             Y             Z          RADIUS     CONNECTION     SEGMENTS
-.09027        .067138       .059733                    3
-.112489       .00157        .074666       .00127       0              1

                  **** ANTENNA GEOMETRY ****

WIRE NO.  1 COORDINATES                                 CONNECTION PULSE
X             Y             Z             RADIUS        END1 END2  NO.
 .1125         0             0             .00127       -1    1   1
 .07393        .053399       .014933       .00127        1    0   2

WIRE NO.  2 COORDINATES                                 CONNECTION PULSE
X             Y             Z             RADIUS        END1 END2  NO.
 .035361       .106798       .029866       .00127        1    0   3

WIRE NO.  3 COORDINATES                                 CONNECTION PULSE
X             Y             Z             RADIUS        END1 END2  NO.
-.033866       .107281       .0448         .00127        2    0   4

WIRE NO.  4 COORDINATES                                 CONNECTION PULSE
X             Y             Z             RADIUS        END1 END2  NO.
-.09027        .067138       .059733       .00127        3    0   5

NO. OF SOURCES :  1
PULSE NO., VOLTAGE MAGNITUDE, PHASE (DEGREES):  1 , 1 , 0
NUMBER OF LOADS 0

********************    SOURCE DATA     ********************
PULSE  1      VOLTAGE = ( 1 , 0 J)
              CURRENT = ( 9.325907E-04 , -8.326427E-03 J)
              IMPEDANCE = ( 13.28494 ,  118.6116 J)
              POWER =  4.662953E-04  WATTS

********************    CURRENT DATA    ********************

WIRE NO.  1 :
PULSE         REAL          IMAGINARY     MAGNITUDE     PHASE
 NO.          (AMPS)        (AMPS)        (AMPS)        (DEGREES)
 1             9.325907E-04 -8.326427E-03  8.378491E-03 -83.6093  
 2             9.124367E-04 -4.433385E-03  4.526306E-03 -78.37032 
J              1.063287E-03 -8.439708E-03  8.506424E-03 -82.81935 
WIRE NO.  2 :
PULSE         REAL          IMAGINARY     MAGNITUDE     PHASE
 NO.          (AMPS)        (AMPS)        (AMPS)        (DEGREES)
J              1.063287E-03 -8.439708E-03  8.506424E-03 -82.81935 
J              9.210768E-04 -9.087665E-03  9.134223E-03 -84.21257 
WIRE NO.  3 :
PULSE         REAL          IMAGINARY     MAGNITUDE     PHASE
 NO.          (AMPS)        (AMPS)        (AMPS)        (DEGREES)
J              9.210768E-04 -9.087665E-03  9.134223E-03 -84.21257 
J              5.260979E-04 -5.980733E-03  6.003828E-03 -84.97289 
WIRE NO.  4 :
PULSE         REAL          IMAGINARY     MAGNITUDE     PHASE
 NO.          (AMPS)        (AMPS)        (AMPS)        (DEGREES)
J              5.260979E-04 -5.980733E-03  6.003828E-03 -84.97289 
E              0             0             0             0

********************     FAR FIELD      ********************

ZENITH ANGLE : INITIAL,INCREMENT,NUMBER: 0 , 10 , 10
AZIMUTH ANGLE: INITIAL,INCREMENT,NUMBER: 0 , 10 , 37

********************    PATTERN DATA    ********************
ZENITH        AZIMUTH       VERTICAL      HORIZONTAL    TOTAL
 ANGLE         ANGLE        PATTERN (DB)  PATTERN (DB)  PATTERN (DB)
 0             0             4.787135     -6.102231      5.127329
 10            0             4.688614     -5.929533      5.049843
 20            0             4.400939     -5.749122      4.801436
 30            0             3.966996     -5.751105      4.40732 
 40            0             3.462478     -6.122475      3.915819
 50            0             2.985995     -7.042069      3.397378
 60            0             2.625515     -8.745007      2.931257
 70            0             2.415158     -11.70116      2.580304
 80            0             2.325543     -17.38464      2.371723
 90            0             2.303907     -999           2.303907
 0             10            5.080055     -14.52785      5.127329
 10            10            4.983204     -12.9368       5.052755
 20            10            4.69206      -11.02097      4.807065
 30            10            4.252036     -9.740116      4.42188 
 40            10            3.740783     -9.26719       3.952787
 50            10            3.25628      -9.644932      3.473431
 60            10            2.884192     -11.0042       3.058061
 70            10            2.658858     -13.75022      2.757024
 80            10            2.555877     -19.32009      2.583982
 90            10            2.528855     -999           2.528855
 0             20            5.104202     -17.62086      5.127329
 10            20            5.016731     -15.1575       5.058254
 20            20            4.743753     -12.58001      4.823445
 30            20            4.33335      -10.97936      4.459301
 40            20            3.864349     -10.34393      4.026098
 50            20            3.430315     -10.63066      3.597539
 60            20            3.106364     -11.93555      3.240295
 70            20            2.916391     -14.64888      2.99181 
 80            20            2.832649     -20.20106      2.854194
 90            20            2.81137      -999           2.81137 
 0             30            4.86109      -7.130235      5.127329
 10            30            4.791003     -7.055417      5.065995
 20            30            4.557589     -7.027688      4.849064
 30            30            4.211016     -7.183023      4.515164
 40            30            3.829314     -7.678688      4.125847
 50            30            3.496962     -8.687356      3.751962
 60            30            3.271211     -10.44901      3.451804
 70            30            3.157806     -13.44085      3.251824
 80            30            3.119977     -19.14318      3.145692
 90            30            3.113615     -999           3.113615
 0             40            4.335086     -2.652029      5.127329
 10            40            4.292164     -2.749733      5.07532 
 20            40            4.123275     -3.073196      4.881302
 30            40            3.878591     -3.663014      4.583153
 40            40            3.63077      -4.591136      4.239994
 50            40            3.447932     -5.977112      3.917389
 60            40            3.362065     -8.036489      3.665907
 70            40            3.356321     -11.23938      3.504499
 80            40            3.383358     -17.0667       3.422337
 90            40            3.398278     -999           3.398278
 0             50            3.489107      .099821       5.127329
 10            50            3.487572     -.03182        5.085329
 20            50            3.417824     -.431166       4.916766
 30            50            3.324366     -1.126982      4.655955
 40            50            3.26474      -2.17586       4.356203
 50            50            3.279359     -3.681843      4.075934
 60            50            3.367938     -5.84723       3.859371
 70            50            3.491011     -9.132218      3.722139
 80            50            3.593955     -15.01118      3.653425
 90            50            3.633584     -999           3.633584
 0             60            2.252822      1.976854      5.127329
 10            60            2.317402      1.838772      5.094978
 20            60            2.403621      1.423947      4.95165 
 30            60            2.534694      .705463       4.725983
 40            60            2.732857     -.370543       4.462958
 50            60            2.99504      -1.904882      4.212606
 60            60            3.285399     -4.096538      4.014249
 70            60            3.548646     -7.402704      3.884201
 80            60            3.731125     -13.29539      3.816408
 90            60            3.796202     -999           3.796202
 0             70            .493885       3.295858      5.127329
 10            70            .676332       3.1593        5.103198
 20            70            1.027474      2.747039      4.982113
 30            70            1.50333       2.031874      4.785937
 40            70            2.051478      .959557       4.550044
 50            70            2.611242     -.571141       4.315548
 60            70            3.120485     -2.759583      4.118058
 70            70            3.524756     -6.063259      3.977793
 80            70            3.783527     -11.95437      3.897884
 90            70            3.872465     -999           3.872465
 0             80           -2.06052       4.206385      5.127329
 10            80           -1.625284      4.073646      5.109015
 20            80           -.767508       3.669182      5.004646
 30            80            .257739       2.964995      4.829289
 40            80            1.267944      1.905648      4.60879 
 50            80            2.162521      .388472       4.375759
 60            80            2.890137     -1.787419      4.163129
 70            80            3.423936     -5.080941      3.997155
 80            80            3.749247     -10.96546      3.893486
 90            80            3.858478     -999           3.858478
 0             90           -6.102231      4.787135      5.127329
 10            90           -4.926561      4.658314      5.111662
 20            90           -2.956234      4.261875      5.016444
 30            90           -1.074019      3.569035      4.850818
 40            90            .483948       2.523168      4.632464
 50            90            1.706232      1.020135      4.387018
 60            90            2.622352     -1.142547      4.146007
 70            90            3.259379     -4.425321      3.94281 
 80            90            3.635207     -10.30283      3.807139
 90            90            3.759482     -999           3.759482
 0             100          -14.52785      5.080055      5.127329
 10            100          -9.403032      4.954287      5.110677
 20            100          -5.037302      4.564021      5.015742
 30            100          -2.149503      3.879892      4.847235
 40            100          -.130823       2.84439       4.61703 
 50            100           1.319964      1.352264      4.346444
 60            100           2.353974     -.800192       4.067459
 70            100           3.051594     -4.074621      3.82095 
 80            100           3.456055     -9.946667      3.650044
 90            100           3.588727     -999           3.588727
 0             110          -17.62086      5.104202      5.127329
 10            110          -10.34126      4.980264      5.105963
 20            110          -5.46841       4.593784      5.002093
 30            110          -2.447885      3.915046      4.817804
 40            110          -.383701       2.885997      4.562153
 50            110           1.084219      1.400696      4.255639
 60            110           2.125255     -.745338       3.933238
 70            110           2.826345     -4.014507      3.643323
 80            110           3.23273      -9.883105      3.439655
 90            110           3.366061     -999           3.366061
 0             120          -7.130235      4.86109       5.127329
 10            120          -5.895507      4.737791      5.097813
 20            120          -3.762852      4.353306      4.976517
 30            120          -1.78246       3.677677      4.764806
 40            120          -.183987       2.652474      4.47211 
 50            120           1.051209      1.171286      4.121963
 60            120           1.971578     -.970869       3.755226
 70            120           2.611883     -4.236871      3.427507
 80            120           2.990839     -10.1034       3.198772
 90            120           3.116464     -999           3.116464
 0             130          -2.652029      4.335086      5.127329
 10            130          -2.299695      4.211595      5.086892
 20            130          -1.517801      3.828981      4.941468
 30            130          -.564          3.156881      4.693608
 40            130           .378899       2.13624       4.356156
 50            130           1.219918      .65993        3.959244
 60            130           1.915045     -1.477706      3.552178
 70            130           2.435681     -4.740095      3.197029
 80            130           2.758868     -10.60431      2.954592
 90            130           2.86854      -999           2.86854 
 0             140           .099821       3.489107      5.127329
 10            140           .196974       3.365285      5.074163
 20            140           .418737       2.987433      4.900591
 30            140           .735256       2.324095      4.612232
 40            140           1.118578      1.314566      4.227978
 50            140           1.540442     -.150076       3.787224
 60            140           1.959873     -2.277095      3.349108
 70            140           2.320936     -5.531133      2.980395
 80            140           2.565915     -11.39005      2.737152
 90            140           2.652653     -999           2.652653
 0             150           1.976854      2.252822      5.127329
 10            150           1.969776      2.129718      5.060783
 20            150           1.929501      1.76491       4.858285
 30            150           1.882935      1.124061      4.530352
 40            150           1.873709      .142263       4.104007
 50            150           1.942324     -1.293826      3.62925 
 60            150           2.093768     -3.395245      3.174518
 70            150           2.283279     -6.629377      2.808103
 80            150           2.43853      -12.47578      2.576391
 90            150           2.498065     -999           2.498065
 0             160           3.295858      .493885       5.127329
 10            160           3.237146      .374887       5.047968
 20            160           3.060809      .042689       4.819117
 30            160           2.808108     -.544619       4.457852
 40            160           2.548453     -1.46245       4.000756
 50            160           2.361116     -2.83445       3.508239
 60            160           2.293602     -4.87975       3.05534 
 70            160           2.32828      -8.071045      2.707384
 80            160           2.396514     -13.89086      2.497437
 90            160           2.428627     -999           2.428627
 0             170           4.206385     -2.06052       5.127329
 10            170           4.119372     -2.165675      5.036855
 20            170           3.869471     -2.414297      4.787198
 30            170           3.502571     -2.871523      4.403237
 40            170           3.097084     -3.641852      3.931709
 50            170           2.749269     -4.87343       3.441783
 60            170           2.531694     -6.801199      3.010683
 70            170           2.450387     -9.905932      2.695759
 80            170           2.448511     -15.6733       2.514928
 90            170           2.457586     -999           2.457586
 0             180           4.787135     -6.102231      5.127329
 10            180           4.684389     -6.154976      5.02837 
 20            180           4.397472     -6.134513      4.765641
 30            180           3.975416     -6.216065      4.37228 
 40            180           3.500654     -6.609201      3.904708
 50            180           3.075025     -7.520447      3.438068
 60            180           2.7801       -9.204259      3.046754
 70            180           2.633678     -12.14149      2.775955
 80            180           2.589104     -17.81192      2.628524
 90            180           2.583438     -999           2.583438
 0             190           5.080055     -14.52785      5.127329
 10            190           4.969674     -14.10145      5.02313 
 20            190           4.670962     -12.35823      4.756193
 30            190           4.236468     -10.91008      4.367258
 40            190           3.751404     -10.25472      3.920713
 50            190           3.317235     -10.49068      3.494291
 60            190           3.012631     -11.7489       3.155349
 70            190           2.854316     -14.4279       2.934768
 80            190           2.799074     -19.95955      2.822024
 90            190           2.789082     -999           2.789082
 0             200           5.104202     -17.62086      5.127329
 10            200           4.992399     -16.74905      5.021385
 20            200           4.702406     -14.1117       4.7591  
 30            200           4.290757     -12.20845      4.386928
 40            200           3.844665     -11.33999      3.974329
 50            200           3.460775     -11.46632      3.598237
 60            200           3.205633     -12.66331      3.316634
 70            200           3.084081     -15.30724      3.14653 
 80            200           3.049004     -20.82046      3.066785
 90            200           3.045078     -999           3.045078
 0             210           4.86109      -7.130235      5.127329
 10            210           4.753546     -7.183985      5.023003
 20            210           4.491996     -7.254402      4.773192
 30            210           4.136889     -7.4669        4.427165
 40            210           3.775465     -7.986166      4.055707
 50            210           3.494033     -8.99793       3.732064
 60            210           3.338601     -10.7532       3.504665
 70            210           3.294175     -13.73647      3.379378
 80            210           3.304822     -19.43224      3.327885
 90            210           3.315646     -999           3.315646
 0             220           4.335086     -2.652029      5.127329
 10            220           4.238112     -2.76613       5.027504
 20            220           4.027685     -3.104093      4.796138
 30            220           3.76686      -3.705198      4.481909
 40            220           3.538057     -4.640955      4.152919
 50            220           3.408581     -6.03127       3.876523
 60            220           3.395221     -8.092541      3.693092
 70            220           3.458662     -11.29588      3.601605
 80            220           3.533339     -17.12308      3.570517
 90            220           3.564986     -999           3.564986
 0             230           3.489107      .099821       5.127329
 10            230           3.411404     -.02739        5.03413 
 20            230           3.283614     -.422365       4.824787
 30            230           3.166852     -1.113949      4.544131
 40            230           3.127778     -2.158842      4.253934
 50            230           3.200754     -3.66123       4.014115
 60            230           3.364943     -5.823577      3.859235
 70            230           3.557193     -9.106243      3.786247
 80            230           3.70651      -14.98375      3.764833
 90            230           3.762223     -999           3.762223
 0             240           2.252822      1.976854      5.127329
 10            240           2.209357      1.846334      5.041937
 20            240           2.21683       1.438842      4.855533
 30            240           2.320077      .727238       4.606577
 40            240           2.545837     -.342548       4.347769
 50            240           2.875029     -1.87152       4.130595
 60            240           3.244954     -4.058825      3.985972
 70            240           3.576971     -7.361786      3.913464
 80            240           3.804099     -13.25251      3.888798
 90            240           3.884452     -999           3.884452
 0             250           .493885       3.295858      5.127329
 10            250           .516609       3.164978      5.049916
 20            250           .763474       2.758233      4.884687
 30            250           1.215907      2.048263      4.662296
 40            250           1.809088      .980665       4.424899
 50            250           2.449145     -.545938       4.215136
 60            250           3.042191     -2.731041      4.061905
 70            250           3.513953     -6.032245      3.971151
 80            250           3.815009     -11.92184      3.929394
 90            250           3.91821      -999           3.91821 
 0             260          -2.06052       4.206385      5.127329
 10            260          -1.88484       4.075982      5.057104
 20            260          -1.155165      3.673808      4.908827
 30            260          -.122006       2.971818      4.705068
 40            260           .968154       1.914514      4.477361
 50            260           1.960407      .399158       4.259865
 60            260           2.774893     -1.775213      4.080621
 70            260           3.373303     -5.067585      3.954485
 80            260           3.737617     -10.95139      3.882698
 90            260           3.859819     -999           3.859819
 0             270          -6.102231      4.787135      5.127329
 10            270          -5.436786      4.657236      5.062699
 20            270          -3.5506        4.2598        4.925153
 30            270          -1.558217      3.566111      4.729874
 40            270           .134369       2.519579      4.499006
 50            270           1.47062       1.016072      4.25959 
 60            270           2.472804     -1.146912      4.039927
 70            270           3.169041     -4.429858      3.865071
 80            270           3.579363     -10.30745      3.753294
 90            270           3.714957     -999           3.714957
 0             280          -14.52785      5.080055      5.127329
 10            280          -10.73615      4.950457      5.066155
 20            280          -5.888968      4.556551      4.931813
 30            280          -2.702526      3.869136      4.733476
 40            280          -.504251       2.83082       4.486151
 50            280           1.063056      1.336416      4.212186
 60            280           2.17486      -.817767       3.941671
 70            280           2.922838     -4.09339       3.71024 
 80            280           3.355777     -9.966133      3.553328
 90            280           3.49768      -999           3.49768 
 0             290          -17.62086      5.104202      5.127329
 10            290          -11.70122      4.974873      5.067246
 20            290          -6.243838      4.583254      4.928172
 30            290          -2.951581      3.899849      4.715014
 40            290          -.73763        2.866768      4.438536
 50            290           .822783       1.378166      4.119646
 60            290           1.923374     -.770401       3.792379
 70            290           2.661945     -4.041345      3.502824
 80            290           3.089104     -9.910989      3.301484
 90            290           3.229099     -999           3.229099
 0             300          -7.130235      4.86109       5.127329
 10            300          -6.24593       4.732549      5.066093
 20            300          -4.172433      4.343047      4.914957
 30            300          -2.139559      3.662827      4.676456
 40            300          -.480421       2.633612      4.360222
 50            300           .802056       1.149095      3.989341
 60            300           1.755209     -.995654       3.604334
 70            300           2.416337     -4.2635        3.261353
 80            300           2.806677     -10.13113      3.02205 
 90            300           2.935906     -999           2.935906
 0             310          -2.652029      4.335086      5.127329
 10            310          -2.418918      4.208881      5.063143
 20            310          -1.711496      3.823592      4.894234
 30            310          -.786924       3.14891       4.622683
 40            310           .150882       2.125849      4.259976
 50            310           .994605       .647372       3.834758
 60            310           1.692887     -1.492082      3.396353
 70            310           2.21525      -4.755848      3.010168
 80            310           2.539025     -10.62092      2.743908
 90            310           2.648801     -999           2.648801
 0             320           .099821       3.489107      5.127329
 10            320           .143678       3.368557      5.059115
 20            320           .318719       2.993533      4.869178
 30            320           .597093       2.332261      4.561065
 40            320           .948871       1.323918      4.150741
 50            320           1.343562     -.140333       3.674985
 60            320           1.739974     -2.267514      3.193248
 70            320           2.08342      -5.521965      2.778491
 80            320           2.317432     -11.38127      2.498904
 90            320           2.400465     -999           2.400465
 0             330           1.976854      2.252822      5.127329
 10            330           1.942287      2.144544      5.054893
 20            330           1.873339      1.792994      4.843652
 30            330           1.794711      1.162703      4.500494
 40            330           1.747815      .188325       4.047996
 50            330           1.77382      -1.243264      3.532472
 60            330           1.882907     -3.342437      3.023135
 70            330           2.037498     -6.575747      2.597463
 80            330           2.170456     -12.422        2.318744
 90            330           2.222427     -999           2.222427
 0             340           3.295858      .493885       5.127329
 10            340           3.223151      .411834       5.05141 
 20            340           3.029552      .11215        4.821652
 30            340           2.75209      -.450019       4.450003
 40            340           2.455877     -1.35089       3.967185
 50            340           2.21953      -2.713112      3.429119
 60            340           2.097253     -4.753855      2.912473
 70            340           2.083341     -7.943691      2.494817
 80            340           2.119316     -13.76338      2.229971
 90            340           2.140311     -999           2.140311
 0             350           4.206385     -2.06052       5.127329
 10            350           4.114904     -2.080966      5.049511
 20            350           3.856345     -2.258695      4.806721
 30            350           3.471308     -2.666268      4.417264
 40            350           3.032448     -3.407916      3.920779
 50            350           2.633753     -4.626803      3.38158 
 60            350           2.354326     -6.551694      2.879905
 70            350           2.214903     -9.658057      2.488271
 80            350           2.173065     -15.42782      2.247874
 90            350           2.168143     -999           2.168143
 0             360           4.787135     -6.102231      5.127329
 10            360           4.688614     -5.929533      5.049843
 20            360           4.400939     -5.749122      4.801436
 30            360           3.966996     -5.751105      4.40732 
 40            360           3.462478     -6.122475      3.915819
 50            360           2.985995     -7.042069      3.397378
 60            360           2.625515     -8.745007      2.931257
 70            360           2.415158     -11.70116      2.580304
 80            360           2.325543     -17.38464      2.371723
 90            360           2.303907     -999           2.303907
