                   ****************************************
                     MINI-NUMERICAL ELECTROMAGNETICS CODE
                                   MININEC
                       07-06-2022              15:19:54
                   ****************************************
 
FREQUENCY (MHZ): 299.8 
    WAVE LENGTH =  1  METERS
 
ENVIRONMENT (+1 FOR FREE SPACE, -1 FOR GROUND PLANE): -1 
 NUMBER OF MEDIA (0 FOR PERFECTLY CONDUCTING GROUND):  0 
 
NO. OF WIRES: 3 
 
WIRE NO. 1 
            COORDINATES                                 END         NO. OF
   X             Y             Z          RADIUS     CONNECTION     SEGMENTS
 0             0             0                          -1 
 0             0             .07958        .004          0             8 
 
WIRE NO. 2 
            COORDINATES                                 END         NO. OF
   X             Y             Z          RADIUS     CONNECTION     SEGMENTS
 0            -.170423       .07958                      0 
 0             0             .07958        .004         -1             17 
 
WIRE NO. 3 
            COORDINATES                                 END         NO. OF
   X             Y             Z          RADIUS     CONNECTION     SEGMENTS
 0             .170423       .07958                      0 
 0             0             .07958        .004         -1             17 
 
                  **** ANTENNA GEOMETRY ****
 
WIRE NO.  1  COORDINATES                                CONNECTION PULSE
X             Y             Z             RADIUS        END1 END2  NO.
 0             0             0             .004          -1    1    1
 0             0             .0099475      .004           1    1    2
 0             0             .019895       .004           1    1    3
 0             0             .0298425      .004           1    1    4
 0             0             .03979        .004           1    1    5
 0             0             .0497375      .004           1    1    6
 0             0             .059685       .004           1    1    7
 0             0             .0696325      .004           1    0    8
 
WIRE NO.  2  COORDINATES                                CONNECTION PULSE
X             Y             Z             RADIUS        END1 END2  NO.
 0            -.1603981      .07958        .004           0    2    9
 0            -.1503732      .07958        .004           2    2   10
 0            -.1403484      .07958        .004           2    2   11
 0            -.1303235      .07958        .004           2    2   12
 0            -.1202986      .07958        .004           2    2   13
 0            -.1102737      .07958        .004           2    2   14
 0            -.1002488      .07958        .004           2    2   15
 0            -9.022394E-02  .07958        .004           2    2   16
 0            -8.019906E-02  .07958        .004           2    2   17
 0            -7.017418E-02  .07958        .004           2    2   18
 0            -.0601493      .07958        .004           2    2   19
 0            -5.012442E-02  .07958        .004           2    2   20
 0            -4.009953E-02  .07958        .004           2    2   21
 0            -3.007466E-02  .07958        .004           2    2   22
 0            -2.004977E-02  .07958        .004           2    2   23
 0            -1.002488E-02  .07958        .004           2    2   24
 0             0             .07958        .004           2   -1   25
 
WIRE NO.  3  COORDINATES                                CONNECTION PULSE
X             Y             Z             RADIUS        END1 END2  NO.
 0             .1603981      .07958        .004           0    3   26
 0             .1503732      .07958        .004           3    3   27
 0             .1403484      .07958        .004           3    3   28
 0             .1303235      .07958        .004           3    3   29
 0             .1202986      .07958        .004           3    3   30
 0             .1102737      .07958        .004           3    3   31
 0             .1002488      .07958        .004           3    3   32
 0             9.022394E-02  .07958        .004           3    3   33
 0             8.019906E-02  .07958        .004           3    3   34
 0             7.017418E-02  .07958        .004           3    3   35
 0             .0601493      .07958        .004           3    3   36
 0             5.012442E-02  .07958        .004           3    3   37
 0             4.009953E-02  .07958        .004           3    3   38
 0             3.007466E-02  .07958        .004           3    3   39
 0             2.004977E-02  .07958        .004           3    3   40
 0             1.002488E-02  .07958        .004           3    3   41
 0             0             .07958        .004           3   -1   42
 
NO. OF SOURCES :  1 
PULSE NO., VOLTAGE MAGNITUDE, PHASE (DEGREES):  1 , 1 , 0 
NUMBER OF LOADS 0 
 
********************    SOURCE DATA     ********************
PULSE  1      VOLTAGE = ( 1 , 0 J)
              CURRENT = ( 8.286391E-03 ,-2.545996E-02 J)
              IMPEDANCE = ( 11.55907 , 35.51527 J)
              POWER =  4.143195E-03  WATTS
 
********************    CURRENT DATA    ********************
 
WIRE NO.  1 :
PULSE         REAL          IMAGINARY     MAGNITUDE     PHASE
 NO.          (AMPS)        (AMPS)        (AMPS)        (DEGREES)
 1             8.286391E-03 -2.545996E-02  2.677449E-02 -71.97161 
 2             8.279536E-03 -2.678906E-02  2.803934E-02 -72.8255 
 3             8.259076E-03 -2.708919E-02  2.832025E-02 -73.04434 
 4             8.225452E-03 -2.731263E-02  2.852433E-02 -73.23983 
 5             8.179459E-03 -2.740545E-02  2.860003E-02 -73.38169 
 6             8.122402E-03 -.0273979      2.857653E-02 -73.48698 
 7             8.056843E-03 -2.730404E-02  2.846793E-02 -73.55979 
 8             7.985391E-03 -2.713534E-02  2.828591E-02 -73.60189 
J              7.941211E-03 -2.701122E-02  2.815437E-02 -73.61683 
 
WIRE NO.  2 :
PULSE         REAL          IMAGINARY     MAGNITUDE     PHASE
 NO.          (AMPS)        (AMPS)        (AMPS)        (DEGREES)
E              0             0             0             0 
 9            -5.447896E-04  1.857307E-03  1.935558E-03  106.3476 
 10           -8.639219E-04  2.941473E-03  3.065718E-03  106.3677 
 11           -1.173517E-03  3.991152E-03  .0041601      106.3849 
 12           -1.462906E-03  4.970209E-03  5.181029E-03  106.401 
 13           -1.738322E-03  5.900248E-03  6.150991E-03  106.416 
 14           -2.001016E-03  6.78585E-03   7.074731E-03  106.4298 
 15           -2.251552E-03  7.629282E-03  7.954585E-03  106.4424 
 16           -2.489942E-03  8.430983E-03  8.790975E-03  106.4536 
 17           -2.715909E-03  9.190466E-03  9.583361E-03  106.4631 
 18           -2.928993E-03  9.906731E-03  1.033065E-02  106.4707 
 19           -3.128606E-03  1.057847E-02  1.103142E-02  106.4757 
 20           -3.314063E-03  1.120422E-02  1.168407E-02  106.4775 
 21           -3.48452E-03   1.178224E-02  1.228671E-02  106.4752 
 22           -3.638965E-03  1.231053E-02  1.283711E-02  106.4676 
 23           -3.775704E-03  1.278531E-02  1.333117E-02  106.4527 
 24           -3.893767E-03  1.320504E-02  1.376716E-02  106.4292 
J             -3.970623E-03  1.350568E-02  1.407726E-02  106.3832 
 
WIRE NO.  3 :
PULSE         REAL          IMAGINARY     MAGNITUDE     PHASE
 NO.          (AMPS)        (AMPS)        (AMPS)        (DEGREES)
E              0             0             0             0 
 26           -5.447853E-04  1.85729E-03   1.935541E-03  106.3476 
 27           -8.63915E-04   2.941448E-03  3.065692E-03  106.3677 
 28           -1.173508E-03  3.991115E-03  4.160063E-03  106.3849 
 29           -1.462894E-03  4.970164E-03  5.180982E-03  106.401 
 30           -1.738307E-03  5.900193E-03  6.150934E-03  106.416 
 31           -2.000999E-03  6.785782E-03  7.074661E-03  106.4298 
 32           -2.251532E-03  7.629208E-03  7.954508E-03  106.4424 
 33           -2.48992E-03   8.430897E-03  8.790888E-03  106.4536 
 34           -2.715884E-03  9.19037E-03   9.583263E-03  106.4632 
 35           -2.928967E-03  9.906629E-03  1.033054E-02  106.4707 
 36           -3.128581E-03  1.057836E-02  1.103131E-02  106.4757 
 37           -3.314034E-03  .0112041      1.168395E-02  106.4776 
 38           -3.48449E-03   1.178213E-02  1.228659E-02  106.4753 
 39           -3.638933E-03  1.231041E-02  1.283698E-02  106.4676 
 40           -3.77567E-03   1.278518E-02  1.333103E-02  106.4527 
 41           -3.89373E-03   .0132049      1.376701E-02  106.4292 
J             -3.970587E-03  1.350554E-02  1.407711E-02  106.3832 
 
********************     FAR FIELD      ********************
 
ZENITH ANGLE : INITIAL,INCREMENT,NUMBER:  0 , 10 , 10 
AZIMUTH ANGLE: INITIAL,INCREMENT,NUMBER:  0 , 90 , 2 
 
 
FILENAME (NAME.OUT): TANT.GNN
 
********************    PATTERN DATA    ********************
ZENITH        AZIMUTH       VERTICAL      HORIZONTAL    TOTAL
 ANGLE         ANGLE        PATTERN (DB)  PATTERN (DB)  PATTERN (DB)
 0             0            -999          -105.7566     -105.7566 
 10            0            -10.94904     -105.6811     -10.94904 
 20            0            -5.029047     -106.1325     -5.029047 
 30            0            -1.681269     -106.87       -1.681269 
 40            0             .5611158     -107.8079      .5611158 
 50            0             2.148964     -109.495       2.148964 
 60            0             3.274573     -111.2842      3.274573 
 70            0             4.03253      -114.4193      4.03253 
 80            0             4.471666     -120.4443      4.471666 
 90            0             4.615678     -151.0012      4.615678 
 0             90           -105.7566     -248.1997     -105.7566 
 10            90           -9.021522     -165.3541     -9.021522 
 20            90           -3.266688     -159.8903     -3.266688 
 30            90           -.1745758     -157.3267     -.1745758 
 40            90            1.749686     -156.242       1.749686 
 50            90            2.99331      -156.276       2.99331 
 60            90            3.789857     -157.4246      3.789857 
 70            90            4.275362     -160.0403      4.275362 
 80            90            4.534557     -165.5381      4.534557 
 90            90            4.615678     -274.7435      4.615678 
