                   ****************************************
                     MINI-NUMERICAL ELECTROMAGNETICS CODE
                                   MININEC
                       07-13-2022              18:00:08
                   ****************************************
 
FREQUENCY (MHZ): 299.8 
    WAVE LENGTH =  1  METERS
 
ENVIRONMENT (+1 FOR FREE SPACE, -1 FOR GROUND PLANE): -1 
 NUMBER OF MEDIA (0 FOR PERFECTLY CONDUCTING GROUND):  0 
 
NO. OF WIRES: 3 
 
WIRE NO. 1 
            COORDINATES                                 END         NO. OF
   X             Y             Z          RADIUS     CONNECTION     SEGMENTS
 0             0             0                          -1 
 0             0             .07958        .00005        0             8 
 
WIRE NO. 2 
            COORDINATES                                 END         NO. OF
   X             Y             Z          RADIUS     CONNECTION     SEGMENTS
 0            -.170423       .07958                      0 
 0             0             .07958        .00005       -1             17 
 
WIRE NO. 3 
            COORDINATES                                 END         NO. OF
   X             Y             Z          RADIUS     CONNECTION     SEGMENTS
 0             .170423       .07958                      0 
 0             0             .07958        .00005       -1             17 
 
                  **** ANTENNA GEOMETRY ****
 
WIRE NO.  1  COORDINATES                                CONNECTION PULSE
X             Y             Z             RADIUS        END1 END2  NO.
 0             0             0             .00005        -1    1    1
 0             0             .0099475      .00005         1    1    2
 0             0             .019895       .00005         1    1    3
 0             0             .0298425      .00005         1    1    4
 0             0             .03979        .00005         1    1    5
 0             0             .0497375      .00005         1    1    6
 0             0             .059685       .00005         1    1    7
 0             0             .0696325      .00005         1    0    8
 
WIRE NO.  2  COORDINATES                                CONNECTION PULSE
X             Y             Z             RADIUS        END1 END2  NO.
 0            -.1603981      .07958        .00005         0    2    9
 0            -.1503732      .07958        .00005         2    2   10
 0            -.1403484      .07958        .00005         2    2   11
 0            -.1303235      .07958        .00005         2    2   12
 0            -.1202986      .07958        .00005         2    2   13
 0            -.1102737      .07958        .00005         2    2   14
 0            -.1002488      .07958        .00005         2    2   15
 0            -9.022394E-02  .07958        .00005         2    2   16
 0            -8.019906E-02  .07958        .00005         2    2   17
 0            -7.017418E-02  .07958        .00005         2    2   18
 0            -.0601493      .07958        .00005         2    2   19
 0            -5.012442E-02  .07958        .00005         2    2   20
 0            -4.009953E-02  .07958        .00005         2    2   21
 0            -3.007466E-02  .07958        .00005         2    2   22
 0            -2.004977E-02  .07958        .00005         2    2   23
 0            -1.002488E-02  .07958        .00005         2    2   24
 0             0             .07958        .00005         2   -1   25
 
WIRE NO.  3  COORDINATES                                CONNECTION PULSE
X             Y             Z             RADIUS        END1 END2  NO.
 0             .1603981      .07958        .00005         0    3   26
 0             .1503732      .07958        .00005         3    3   27
 0             .1403484      .07958        .00005         3    3   28
 0             .1303235      .07958        .00005         3    3   29
 0             .1202986      .07958        .00005         3    3   30
 0             .1102737      .07958        .00005         3    3   31
 0             .1002488      .07958        .00005         3    3   32
 0             9.022394E-02  .07958        .00005         3    3   33
 0             8.019906E-02  .07958        .00005         3    3   34
 0             7.017418E-02  .07958        .00005         3    3   35
 0             .0601493      .07958        .00005         3    3   36
 0             5.012442E-02  .07958        .00005         3    3   37
 0             4.009953E-02  .07958        .00005         3    3   38
 0             3.007466E-02  .07958        .00005         3    3   39
 0             2.004977E-02  .07958        .00005         3    3   40
 0             1.002488E-02  .07958        .00005         3    3   41
 0             0             .07958        .00005         3   -1   42
 
NO. OF SOURCES :  1 
PULSE NO., VOLTAGE MAGNITUDE, PHASE (DEGREES):  1 , 1 , 0 
NUMBER OF LOADS 0 
 
********************    SOURCE DATA     ********************
PULSE  1      VOLTAGE = ( 1 , 0 J)
              CURRENT = ( 1.434801E-03 ,-1.149164E-02 J)
              IMPEDANCE = ( 10.69817 , 85.68405 J)
              POWER =  7.174005E-04  WATTS
 
********************    CURRENT DATA    ********************
 
WIRE NO.  1 :
PULSE         REAL          IMAGINARY     MAGNITUDE     PHASE
 NO.          (AMPS)        (AMPS)        (AMPS)        (DEGREES)
 1             1.434801E-03 -1.149164E-02  1.158086E-02 -82.8831 
 2             1.43335E-03  -1.167399E-02  1.176166E-02 -83.00018 
 3             1.429006E-03 -1.177991E-02  1.186627E-02 -83.08332 
 4             1.421812E-03 -1.183392E-02  1.191903E-02 -83.14891 
 5             1.411843E-03 -.0118413      1.192517E-02 -83.20069 
 6             1.399219E-03 -1.180482E-02  1.188745E-02 -83.2403 
 7             1.384135E-03 -.0117269      .0118083     -83.26848 
 8             1.366953E-03 -1.161081E-02  .011691      -83.28542 
J              1.348979E-03 -1.146701E-02  1.154609E-02 -83.29055 
 
WIRE NO.  2 :
PULSE         REAL          IMAGINARY     MAGNITUDE     PHASE
 NO.          (AMPS)        (AMPS)        (AMPS)        (DEGREES)
E              0             0             0             0 
 9            -5.827457E-05  5.000753E-04  5.034592E-04  96.6468 
 10           -1.108688E-04  9.503522E-04  9.567973E-04  96.6541 
 11           -1.612581E-04  1.380827E-03  1.390211E-03  96.66105 
 12           -2.100246E-04  .0017966      1.808834E-03  96.66769 
 13           -2.573199E-04  2.199069E-03  2.214072E-03  96.67401 
 14           -3.031444E-04  2.588338E-03  2.606029E-03  96.68002 
 15           -3.474311E-04  2.963931E-03  2.984224E-03  96.68569 
 16           -3.900773E-04  3.325082E-03  3.347884E-03  96.69099 
 17           -4.30961E-04   3.670864E-03  3.696074E-03  96.69591 
 18           -4.699482E-04  4.000266E-03  4.027775E-03  96.70036 
 19           -5.068969E-04  4.312221E-03  4.341911E-03  96.7043 
 20           -5.416573E-04  4.605621E-03  4.637363E-03  96.70763 
 21           -5.740681E-04  4.879291E-03  4.912946E-03  96.71024 
 22           -6.039474E-04  5.131913E-03  5.167328E-03  96.71196 
 23           -6.31064E-04   5.361789E-03  5.398797E-03  96.71265 
 24           -6.550399E-04  5.566039E-03  5.604451E-03  96.71199 
J             -6.74497E-04   5.733579E-03  5.773116E-03  96.70943 
 
WIRE NO.  3 :
PULSE         REAL          IMAGINARY     MAGNITUDE     PHASE
 NO.          (AMPS)        (AMPS)        (AMPS)        (DEGREES)
E              0             0             0             0 
 26           -5.827309E-05  5.000613E-04  5.034451E-04  96.64681 
 27           -1.108659E-04  9.503256E-04  9.567705E-04  96.65411 
 28           -1.612539E-04  1.380788E-03  1.390172E-03  96.66106 
 29           -2.100191E-04  1.796549E-03  1.808783E-03  96.6677 
 30           -2.573132E-04  2.199006E-03  2.21401E-03   96.67403 
 31           -3.031366E-04  2.588264E-03  2.605955E-03  96.68004 
 32           -3.474222E-04  2.963848E-03  2.98414E-03   96.68571 
 33           -3.900674E-04  3.324989E-03  3.34779E-03   96.69102 
 34           -4.309501E-04  3.670761E-03  3.695971E-03  96.69592 
 35           -4.699364E-04  4.000152E-03  4.027661E-03  96.70038 
 36           -5.068843E-04  4.312098E-03  4.341787E-03  96.70432 
 37           -5.416438E-04  4.60549E-03   4.637231E-03  96.70766 
 38           -5.74054E-04   4.879153E-03  4.912807E-03  96.71025 
 39           -6.039332E-04  5.131772E-03  5.167186E-03  96.71199 
 40           -6.310498E-04  5.361648E-03  5.398656E-03  96.71266 
 41           -6.550255E-04  5.565896E-03  5.604307E-03  96.71201 
J             -6.744821E-04  5.733434E-03  5.77297E-03   96.70945 
 
********************     FAR FIELD      ********************
 
ZENITH ANGLE : INITIAL,INCREMENT,NUMBER:  0 , 10 , 10 
AZIMUTH ANGLE: INITIAL,INCREMENT,NUMBER:  0 , 90 , 2 
 
 
FILENAME (NAME.OUT): TANT.GNN
 
********************    PATTERN DATA    ********************
ZENITH        AZIMUTH       VERTICAL      HORIZONTAL    TOTAL
 ANGLE         ANGLE        PATTERN (DB)  PATTERN (DB)  PATTERN (DB)
 0             0            -999          -97.36826     -97.36826 
 10            0            -10.92175     -97.41962     -10.92175 
 20            0            -5.002015     -97.9339      -5.002015 
 30            0            -1.654616     -98.51138     -1.654616 
 40            0             .5873088     -99.53745      .5873088 
 50            0             2.174671     -100.9534      2.174671 
 60            0             3.299826     -103.1293      3.299826 
 70            0             4.057411     -106.4109      4.057411 
 80            0             4.496311     -112.3059      4.496311 
 90            0             4.64024      -149.2657      4.64024 
 0             90           -97.36826     -239.8114     -97.36826 
 10            90           -9.189103     -166.3535     -9.189103 
 20            90           -3.418804     -160.887      -3.418804 
 30            90           -.3023852     -158.319      -.3023852 
 40            90            1.65273      -157.2289      1.65273 
 50            90            2.930507     -157.2571      2.930507 
 60            90            3.760484     -158.4004      3.760484 
 70            90            4.274257     -161.0117      4.274257 
 80            90            4.552432     -166.5065      4.552432 
 90            90            4.64024      -275.5354      4.64024 
