                   ****************************************
                     MINI-NUMERICAL ELECTROMAGNETICS CODE
                                   MININEC
                   ****************************************

FREQUENCY (MHZ): 299.8
    WAVE LENGTH =  1  METERS

ENVIRONMENT (+1 FOR FREE SPACE, -1 FOR GROUND PLANE): -1
 NUMBER OF MEDIA (0 FOR PERFECTLY CONDUCTING GROUND):  0

NO. OF WIRES: 3

WIRE NO. 1
            COORDINATES                                 END         NO. OF
   X             Y             Z          RADIUS     CONNECTION     SEGMENTS
 0             0             0                         -1
 0             0             .07958        .00005       0              8

WIRE NO. 2
            COORDINATES                                 END         NO. OF
   X             Y             Z          RADIUS     CONNECTION     SEGMENTS
 0            -.170423       .07958                     0
 0             0             .07958        .00005      -1             17

WIRE NO. 3
            COORDINATES                                 END         NO. OF
   X             Y             Z          RADIUS     CONNECTION     SEGMENTS
 0             .170423       .07958                     0
 0             0             .07958        .00005      -1             17

                  **** ANTENNA GEOMETRY ****

WIRE NO.  1  COORDINATES                                CONNECTION PULSE
X             Y             Z             RADIUS        END1 END2  NO.
 0             0             0             .00005       -1    1   1
 0             0             .009947       .00005        1    1   2
 0             0             .019895       .00005        1    1   3
 0             0             .029842       .00005        1    1   4
 0             0             .03979        .00005        1    1   5
 0             0             .049737       .00005        1    1   6
 0             0             .059685       .00005        1    1   7
 0             0             .069632       .00005        1    0   8

WIRE NO.  2  COORDINATES                                CONNECTION PULSE
X             Y             Z             RADIUS        END1 END2  NO.
 0            -.160398       .07958        .00005        0    2   9
 0            -.150373       .07958        .00005        2    2  10
 0            -.140348       .07958        .00005        2    2  11
 0            -.130323       .07958        .00005        2    2  12
 0            -.120299       .07958        .00005        2    2  13
 0            -.110274       .07958        .00005        2    2  14
 0            -.100249       .07958        .00005        2    2  15
 0            -.090223       .07958        .00005        2    2  16
 0            -.080199       .07958        .00005        2    2  17
 0            -.070174       .07958        .00005        2    2  18
 0            -.060149       .07958        .00005        2    2  19
 0            -.050124       .07958        .00005        2    2  20
 0            -.040099       .07958        .00005        2    2  21
 0            -.030074       .07958        .00005        2    2  22
 0            -.020049       .07958        .00005        2    2  23
 0            -.010024       .07958        .00005        2    2  24
 0             0             .07958        .00005        2   -1  25

WIRE NO.  3  COORDINATES                                CONNECTION PULSE
X             Y             Z             RADIUS        END1 END2  NO.
 0             .160398       .07958        .00005        0    3  26
 0             .150373       .07958        .00005        3    3  27
 0             .140348       .07958        .00005        3    3  28
 0             .130323       .07958        .00005        3    3  29
 0             .120299       .07958        .00005        3    3  30
 0             .110274       .07958        .00005        3    3  31
 0             .100249       .07958        .00005        3    3  32
 0             .090223       .07958        .00005        3    3  33
 0             .080199       .07958        .00005        3    3  34
 0             .070174       .07958        .00005        3    3  35
 0             .060149       .07958        .00005        3    3  36
 0             .050124       .07958        .00005        3    3  37
 0             .040099       .07958        .00005        3    3  38
 0             .030074       .07958        .00005        3    3  39
 0             .020049       .07958        .00005        3    3  40
 0             .010024       .07958        .00005        3    3  41
 0             0             .07958        .00005        3   -1  42

NO. OF SOURCES :  1
PULSE NO., VOLTAGE MAGNITUDE, PHASE (DEGREES):  1 , 1 , 0
NUMBER OF LOADS 0

********************    SOURCE DATA     ********************
PULSE  1      VOLTAGE = ( 1 , 0 J)
              CURRENT = ( 1.435098E-03 , -1.149282E-02 J)
              IMPEDANCE = ( 10.69817 ,  85.67501 J)
              POWER =  7.175491E-04  WATTS

********************    CURRENT DATA    ********************

WIRE NO.  1 :
PULSE         REAL          IMAGINARY     MAGNITUDE     PHASE
 NO.          (AMPS)        (AMPS)        (AMPS)        (DEGREES)
 1             1.435098E-03 -1.149282E-02  1.158207E-02 -82.88237 
 2             1.433645E-03 -1.167516E-02  1.176286E-02 -82.99944 
 3             1.429299E-03 -1.178107E-02  1.186746E-02 -83.08259 
 4             1.422103E-03 -1.183508E-02  1.192021E-02 -83.14819 
 5             1.412130E-03 -1.184243E-02  1.192633E-02 -83.19997 
 6             1.399502E-03 -1.180594E-02  1.188860E-02 -83.23958 
 7             1.384414E-03 -1.172800E-02  1.180943E-02 -83.26776 
 8             1.367227E-03 -1.161189E-02  1.169211E-02 -83.2847  
J              1.349248E-03 -1.146807E-02  1.154717E-02 -83.28985 
WIRE NO.  2 :
PULSE         REAL          IMAGINARY     MAGNITUDE     PHASE
 NO.          (AMPS)        (AMPS)        (AMPS)        (DEGREES)
E              0             0             0             0
 9            -5.828471E-05  5.001082E-04  5.034931E-04  96.6475  
 10           -1.108880E-04  9.504148E-04  9.568618E-04  96.6548  
 11           -1.612860E-04  1.380917E-03  1.390304E-03  96.66175 
 12           -2.100609E-04  1.796717E-03  1.808955E-03  96.66839 
 13           -2.573642E-04  2.199212E-03  2.214220E-03  96.67472 
 14           -3.031967E-04  2.588506E-03  2.606202E-03  96.68072 
 15           -3.474910E-04  2.964124E-03  2.984423E-03  96.68639 
 16           -3.901448E-04  3.325300E-03  3.348109E-03  96.6917  
 17           -4.310359E-04  3.671108E-03  3.696326E-03  96.69661 
 18           -4.700304E-04  4.000534E-03  4.028052E-03  96.70107 
 19           -5.069862E-04  4.312514E-03  4.342213E-03  96.70501 
 20           -5.417533E-04  4.605939E-03  4.637691E-03  96.70834 
 21           -5.741707E-04  4.879635E-03  4.913299E-03  96.71095 
 22           -6.040566E-04  5.132283E-03  5.167709E-03  96.71268 
 23           -6.311798E-04  5.362189E-03  5.399209E-03  96.71336 
 24           -6.551618E-04  5.566469E-03  5.604892E-03  96.71271 
J             -6.746239E-04  5.734034E-03  5.773583E-03  96.71015 
WIRE NO.  3 :
PULSE         REAL          IMAGINARY     MAGNITUDE     PHASE
 NO.          (AMPS)        (AMPS)        (AMPS)        (DEGREES)
E              0             0             0             0
 26           -5.828471E-05  5.001082E-04  5.034931E-04  96.6475  
 27           -1.108880E-04  9.504148E-04  9.568618E-04  96.6548  
 28           -1.612860E-04  1.380917E-03  1.390304E-03  96.66175 
 29           -2.100609E-04  1.796717E-03  1.808955E-03  96.66839 
 30           -2.573642E-04  2.199212E-03  2.214220E-03  96.67472 
 31           -3.031967E-04  2.588506E-03  2.606202E-03  96.68072 
 32           -3.474910E-04  2.964124E-03  2.984423E-03  96.68639 
 33           -3.901448E-04  3.325300E-03  3.348109E-03  96.6917  
 34           -4.310359E-04  3.671108E-03  3.696326E-03  96.69661 
 35           -4.700304E-04  4.000534E-03  4.028052E-03  96.70107 
 36           -5.069862E-04  4.312514E-03  4.342213E-03  96.70501 
 37           -5.417533E-04  4.605939E-03  4.637691E-03  96.70834 
 38           -5.741707E-04  4.879635E-03  4.913299E-03  96.71095 
 39           -6.040566E-04  5.132283E-03  5.167709E-03  96.71268 
 40           -6.311798E-04  5.362189E-03  5.399209E-03  96.71336 
 41           -6.551618E-04  5.566469E-03  5.604892E-03  96.71271 
J             -6.746239E-04  5.734034E-03  5.773583E-03  96.71015 

********************     FAR FIELD      ********************

ZENITH ANGLE : INITIAL,INCREMENT,NUMBER:  0 , 10 , 10
AZIMUTH ANGLE: INITIAL,INCREMENT,NUMBER:  0 , 90 ,  2

********************    PATTERN DATA    ********************
ZENITH        AZIMUTH       VERTICAL      HORIZONTAL    TOTAL
 ANGLE         ANGLE        PATTERN (DB)  PATTERN (DB)  PATTERN (DB)
 0             0            -999          -283.1737     -283.1737
 10            0            -10.92166     -283.5999     -10.92166
 20            0            -5.001999     -283.7873     -5.001999
 30            0            -1.654642     -284.583      -1.654642
 40            0             .587253      -285.445       .587253 
 50            0             2.174594     -286.997       2.174594
 60            0             3.299736     -288.7932      3.299736
 70            0             4.057313     -291.9703      4.057313
 80            0             4.496207     -297.9201      4.496207
 90            0             4.640135     -999           4.640135
 0             90           -283.1737     -999          -283.1737
 10            90           -9.18907      -999          -9.18907 
 20            90           -3.41883      -999          -3.41883 
 30            90           -.302446      -999          -.302446 
 40            90            1.652644     -999           1.652644
 50            90            2.930411     -999           2.930411
 60            90            3.760381     -999           3.760381
 70            90            4.274153     -999           4.274153
 80            90            4.552325     -999           4.552325
 90            90            4.640135     -999           4.640135
