                   ****************************************
                     MINI-NUMERICAL ELECTROMAGNETICS CODE
                                   MININEC
                   ****************************************

FREQUENCY (MHZ): 299.8
    WAVE LENGTH =  1  METERS

ENVIRONMENT (+1 FOR FREE SPACE, -1 FOR GROUND PLANE): -1
 NUMBER OF MEDIA (0 FOR PERFECTLY CONDUCTING GROUND):  0

NO. OF WIRES: 3

WIRE NO. 1
            COORDINATES                                 END         NO. OF
   X             Y             Z          RADIUS     CONNECTION     SEGMENTS
 0             0             0                         -1
 0             0             .07958        .004         0              8

WIRE NO. 2
            COORDINATES                                 END         NO. OF
   X             Y             Z          RADIUS     CONNECTION     SEGMENTS
 0            -.170423       .07958                     0
 0             0             .07958        .004        -1             17

WIRE NO. 3
            COORDINATES                                 END         NO. OF
   X             Y             Z          RADIUS     CONNECTION     SEGMENTS
 0             .170423       .07958                     0
 0             0             .07958        .004        -1             17

                  **** ANTENNA GEOMETRY ****

WIRE NO.  1  COORDINATES                                CONNECTION PULSE
X             Y             Z             RADIUS        END1 END2  NO.
 0             0             0             .004         -1    1   1
 0             0             .009947       .004          1    1   2
 0             0             .019895       .004          1    1   3
 0             0             .029842       .004          1    1   4
 0             0             .03979        .004          1    1   5
 0             0             .049737       .004          1    1   6
 0             0             .059685       .004          1    1   7
 0             0             .069632       .004          1    0   8

WIRE NO.  2  COORDINATES                                CONNECTION PULSE
X             Y             Z             RADIUS        END1 END2  NO.
 0            -.160398       .07958        .004          0    2   9
 0            -.150373       .07958        .004          2    2  10
 0            -.140348       .07958        .004          2    2  11
 0            -.130323       .07958        .004          2    2  12
 0            -.120299       .07958        .004          2    2  13
 0            -.110274       .07958        .004          2    2  14
 0            -.100249       .07958        .004          2    2  15
 0            -.090223       .07958        .004          2    2  16
 0            -.080199       .07958        .004          2    2  17
 0            -.070174       .07958        .004          2    2  18
 0            -.060149       .07958        .004          2    2  19
 0            -.050124       .07958        .004          2    2  20
 0            -.040099       .07958        .004          2    2  21
 0            -.030074       .07958        .004          2    2  22
 0            -.020049       .07958        .004          2    2  23
 0            -.010024       .07958        .004          2    2  24
 0             0             .07958        .004          2   -1  25

WIRE NO.  3  COORDINATES                                CONNECTION PULSE
X             Y             Z             RADIUS        END1 END2  NO.
 0             .160398       .07958        .004          0    3  26
 0             .150373       .07958        .004          3    3  27
 0             .140348       .07958        .004          3    3  28
 0             .130323       .07958        .004          3    3  29
 0             .120299       .07958        .004          3    3  30
 0             .110274       .07958        .004          3    3  31
 0             .100249       .07958        .004          3    3  32
 0             .090223       .07958        .004          3    3  33
 0             .080199       .07958        .004          3    3  34
 0             .070174       .07958        .004          3    3  35
 0             .060149       .07958        .004          3    3  36
 0             .050124       .07958        .004          3    3  37
 0             .040099       .07958        .004          3    3  38
 0             .030074       .07958        .004          3    3  39
 0             .020049       .07958        .004          3    3  40
 0             .010024       .07958        .004          3    3  41
 0             0             .07958        .004          3   -1  42

NO. OF SOURCES :  1
PULSE NO., VOLTAGE MAGNITUDE, PHASE (DEGREES):  1 , 1 , 0
NUMBER OF LOADS 0

********************    SOURCE DATA     ********************
PULSE  1      VOLTAGE = ( 1 , 0 J)
              CURRENT = ( 8.290230E-03 , -2.546579E-02 J)
              IMPEDANCE = (  11.5586  ,  35.50553 J)
              POWER =  4.145116E-03  WATTS

********************    CURRENT DATA    ********************

WIRE NO.  1 :
PULSE         REAL          IMAGINARY     MAGNITUDE     PHASE
 NO.          (AMPS)        (AMPS)        (AMPS)        (DEGREES)
 1             8.290230E-03 -2.546579E-02  2.678124E-02 -71.96767 
 2             8.283363E-03 -2.679492E-02  2.804606E-02 -72.82157 
 3             8.262900E-03 -2.709501E-02  2.832693E-02 -73.04038 
 4             8.229256E-03 -2.731842E-02  2.853098E-02 -73.23588 
 5             8.183236E-03 -2.741120E-02  2.860663E-02 -73.37773 
 6             8.126145E-03 -2.740360E-02  2.858306E-02 -73.48303 
 7             8.060541E-03 -2.730965E-02  2.847436E-02 -73.55585 
 8             7.989044E-03 -2.714086E-02  2.829225E-02 -73.59796 
J              7.944842E-03 -2.701671E-02  2.816067E-02 -73.6129  
WIRE NO.  2 :
PULSE         REAL          IMAGINARY     MAGNITUDE     PHASE
 NO.          (AMPS)        (AMPS)        (AMPS)        (DEGREES)
E              0             0             0             0
 9             -5.450258E-04 1.857645E-03  1.935950E-03  106.3515 
 10            -8.642963E-04 2.942008E-03  3.066337E-03  106.3716 
 11            -1.174026E-03 3.991873E-03  4.160936E-03  106.3888 
 12            -1.463540E-03 4.971108E-03  5.182072E-03  106.4049 
 13            -1.739076E-03 5.901317E-03  6.152229E-03  106.4199 
 14            -2.001885E-03 6.787080E-03  7.076157E-03  106.4337 
 15            -2.252531E-03 7.630672E-03  7.956196E-03  106.4463 
 16            -2.491027E-03 8.432526E-03  8.792765E-03  106.4575 
 17            -2.717094E-03 9.192158E-03  9.585321E-03  106.4671 
 18            -2.930275E-03 9.908566E-03  1.033277E-02  106.4746 
 19            -3.129981E-03 1.058044E-02  1.103370E-02  106.4796 
 20            -3.315522E-03 1.120632E-02  1.168651E-02  106.4815 
 21            -3.486059E-03 1.178447E-02  1.228928E-02  106.4792 
 22            -3.640580E-03 1.231288E-02  1.283982E-02  106.4715 
 23            -3.777388E-03 1.278778E-02  1.333401E-02  106.4566 
 24            -3.895516E-03 1.320763E-02  1.377013E-02  106.4331 
J              -3.972419E-03 1.350836E-02  1.408034E-02  106.3871 
WIRE NO.  3 :
PULSE         REAL          IMAGINARY     MAGNITUDE     PHASE
 NO.          (AMPS)        (AMPS)        (AMPS)        (DEGREES)
E              0             0             0             0
 26            -5.450258E-04 1.857645E-03  1.935950E-03  106.3515 
 27            -8.642963E-04 2.942008E-03  3.066337E-03  106.3716 
 28            -1.174026E-03 3.991873E-03  4.160936E-03  106.3888 
 29            -1.463540E-03 4.971108E-03  5.182072E-03  106.4049 
 30            -1.739076E-03 5.901317E-03  6.152229E-03  106.4199 
 31            -2.001885E-03 6.787080E-03  7.076157E-03  106.4337 
 32            -2.252531E-03 7.630672E-03  7.956196E-03  106.4463 
 33            -2.491027E-03 8.432526E-03  8.792765E-03  106.4575 
 34            -2.717094E-03 9.192158E-03  9.585321E-03  106.4671 
 35            -2.930275E-03 9.908566E-03  1.033277E-02  106.4746 
 36            -3.129981E-03 1.058044E-02  1.103370E-02  106.4796 
 37            -3.315522E-03 1.120632E-02  1.168651E-02  106.4815 
 38            -3.486059E-03 1.178447E-02  1.228928E-02  106.4792 
 39            -3.640580E-03 1.231288E-02  1.283982E-02  106.4715 
 40            -3.777388E-03 1.278778E-02  1.333401E-02  106.4566 
 41            -3.895516E-03 1.320763E-02  1.377013E-02  106.4331 
J              -3.972419E-03 1.350836E-02  1.408034E-02  106.3871 

********************     FAR FIELD      ********************

ZENITH ANGLE : INITIAL,INCREMENT,NUMBER:  0 , 10 , 10
AZIMUTH ANGLE: INITIAL,INCREMENT,NUMBER:  0 , 90 ,  2

********************    PATTERN DATA    ********************
ZENITH        AZIMUTH       VERTICAL      HORIZONTAL    TOTAL
 ANGLE         ANGLE        PATTERN (DB)  PATTERN (DB)  PATTERN (DB)
 0             0            -999          -287.6783     -287.6783
 10            0            -10.94889     -288.0695     -10.94889
 20            0            -5.028979     -288.6802     -5.028979
 30            0            -1.681243     -289.1381     -1.681243
 40            0             .561113      -289.6221      .561113 
 50            0             2.148941     -290.8906      2.148941
 60            0             3.274536     -293.9492      3.274536
 70            0             4.03248      -297.3425      4.03248 
 80            0             4.471612     -999           4.471612
 90            0             4.615623     -999           4.615623
 0             90           -287.6783     -999          -287.6783
 10            90           -9.021446     -999          -9.021446
 20            90           -3.266681     -999          -3.266681
 30            90           -.174602      -999          -.174602 
 40            90            1.749643     -999           1.749643
 50            90            2.993258     -999           2.993258
 60            90            3.789801     -999           3.789801
 70            90            4.275303     -999           4.275303
 80            90            4.534502     -999           4.534502
 90            90            4.615623     -999           4.615623
