                   ****************************************
                     MINI-NUMERICAL ELECTROMAGNETICS CODE
                                   MININEC
                   ****************************************

FREQUENCY (MHZ): 299.8
    WAVE LENGTH =  1  METERS

ENVIRONMENT (+1 FOR FREE SPACE, -1 FOR GROUND PLANE): -1
 NUMBER OF MEDIA (0 FOR PERFECTLY CONDUCTING GROUND):  0

NO. OF GEO-OBJECTS: 3

WIRE NO. 1
            COORDINATES                                 END         NO. OF
   X             Y             Z          RADIUS     CONNECTION     SEGMENTS
 0             0             0                         -1
 0             0             .07958        .004         0              8

WIRE NO. 2
            COORDINATES                                 END         NO. OF
   X             Y             Z          RADIUS     CONNECTION     SEGMENTS
 0            -.170423       .079581                    0
 0             0             .079581       .004        -1             17

WIRE NO. 3
            COORDINATES                                 END         NO. OF
   X             Y             Z          RADIUS     CONNECTION     SEGMENTS
 0             .170423       .079581                    0
 0             0             .079581       .004        -1             17

                  **** ANTENNA GEOMETRY ****

WIRE NO.  1 COORDINATES                                 CONNECTION PULSE
X             Y             Z             RADIUS        END1 END2  NO.
 0             0             0             .004         -1    1   1
 0             0             .009947       .004          1    1   2
 0             0             .019895       .004          1    1   3
 0             0             .029842       .004          1    1   4
 0             0             .03979        .004          1    1   5
 0             0             .049737       .004          1    1   6
 0             0             .059685       .004          1    1   7
 0             0             .069632       .004          1    0   8

WIRE NO.  2 COORDINATES                                 CONNECTION PULSE
X             Y             Z             RADIUS        END1 END2  NO.
 0            -.160398       .079581       .004          0    2   9
 0            -.150373       .079581       .004          2    2  10
 0            -.140348       .079581       .004          2    2  11
 0            -.130323       .079581       .004          2    2  12
 0            -.120299       .079581       .004          2    2  13
 0            -.110274       .079581       .004          2    2  14
 0            -.100249       .079581       .004          2    2  15
 0            -.090223       .079581       .004          2    2  16
 0            -.080199       .079581       .004          2    2  17
 0            -.070174       .079581       .004          2    2  18
 0            -.060149       .079581       .004          2    2  19
 0            -.050124       .079581       .004          2    2  20
 0            -.040099       .079581       .004          2    2  21
 0            -.030074       .079581       .004          2    2  22
 0            -.020049       .079581       .004          2    2  23
 0            -.010024       .079581       .004          2    2  24
 0             0             .079581       .004          2   -1  25

WIRE NO.  3 COORDINATES                                 CONNECTION PULSE
X             Y             Z             RADIUS        END1 END2  NO.
 0             .160398       .079581       .004          0    3  26
 0             .150373       .079581       .004          3    3  27
 0             .140348       .079581       .004          3    3  28
 0             .130323       .079581       .004          3    3  29
 0             .120299       .079581       .004          3    3  30
 0             .110274       .079581       .004          3    3  31
 0             .100249       .079581       .004          3    3  32
 0             .090223       .079581       .004          3    3  33
 0             .080199       .079581       .004          3    3  34
 0             .070174       .079581       .004          3    3  35
 0             .060149       .079581       .004          3    3  36
 0             .050124       .079581       .004          3    3  37
 0             .040099       .079581       .004          3    3  38
 0             .030074       .079581       .004          3    3  39
 0             .020049       .079581       .004          3    3  40
 0             .010024       .079581       .004          3    3  41
 0             0             .079581       .004          3   -1  42

NO. OF SOURCES :  1
PULSE NO., VOLTAGE MAGNITUDE, PHASE (DEGREES):  1 , 1 , 0
NUMBER OF LOADS 0

********************    SOURCE DATA     ********************
PULSE  1      VOLTAGE = ( 1 , 0 J)
              CURRENT = ( 8.294433E-03 , -2.547200E-02 J)
              IMPEDANCE = ( 11.55825 ,  35.49509 J)
              POWER =  4.147217E-03  WATTS

********************    CURRENT DATA    ********************

WIRE NO.  1 :
PULSE         REAL          IMAGINARY     MAGNITUDE     PHASE
 NO.          (AMPS)        (AMPS)        (AMPS)        (DEGREES)
 1             8.294433E-03 -2.547200E-02  2.678844E-02 -71.96322 
 2             8.287561E-03 -2.680111E-02  2.805322E-02 -72.81711 
 3             8.267079E-03 -2.710115E-02  2.833403E-02 -73.03592 
 4             8.233417E-03 -2.732455E-02  2.853804E-02 -73.23142 
 5             8.187357E-03 -2.741724E-02  2.861359E-02 -73.37328 
 6             8.130226E-03 -2.740955E-02  2.858993E-02 -73.47858 
 7             8.064522E-03 -2.731533E-02  2.848094E-02 -73.5514  
 8             7.993373E-03 -2.714780E-02  2.830013E-02 -73.59351 
J              7.949272E-03 -2.702404E-02  2.816895E-02 -73.60846 
WIRE NO.  2 :
PULSE         REAL          IMAGINARY     MAGNITUDE     PHASE
 NO.          (AMPS)        (AMPS)        (AMPS)        (DEGREES)
E              0             0             0             0
 9            -5.452991E-04  1.858040E-03  1.936405E-03  106.356  
 10           -8.647288E-04  2.942632E-03  3.067057E-03  106.3761 
 11           -1.174613E-03  3.992720E-03  4.161914E-03  106.3933 
 12           -1.464270E-03  4.972162E-03  5.183289E-03  106.4094 
 13           -1.739943E-03  5.902567E-03  6.153674E-03  106.4243 
 14           -2.002882E-03  6.788516E-03  7.077817E-03  106.4382 
 15           -2.253652E-03  7.632286E-03  7.958061E-03  106.4508 
 16           -2.492265E-03  8.434307E-03  8.794823E-03  106.462  
 17           -2.718444E-03  9.194096E-03  9.587562E-03  106.4715 
 18           -2.931729E-03  9.910651E-03  1.033518E-02  106.4791 
 19           -3.131532E-03  1.058267E-02  1.103627E-02  106.4841 
 20           -3.317163E-03  1.120867E-02  1.168922E-02  106.4859 
 21           -3.487781E-03  1.178693E-02  1.229213E-02  106.4836 
 22           -3.642374E-03  1.231544E-02  1.284277E-02  106.4759 
 23           -3.779248E-03  1.279042E-02  1.333707E-02  106.4611 
 24           -3.897373E-03  1.321015E-02  1.377307E-02  106.4376 
J             -3.974636E-03  1.351202E-02  1.408448E-02  106.3915 
WIRE NO.  3 :
PULSE         REAL          IMAGINARY     MAGNITUDE     PHASE
 NO.          (AMPS)        (AMPS)        (AMPS)        (DEGREES)
E              0             0             0             0
 26           -5.452991E-04  1.858040E-03  1.936405E-03  106.356  
 27           -8.647288E-04  2.942632E-03  3.067057E-03  106.3761 
 28           -1.174613E-03  3.992720E-03  4.161914E-03  106.3933 
 29           -1.464270E-03  4.972162E-03  5.183289E-03  106.4094 
 30           -1.739943E-03  5.902567E-03  6.153674E-03  106.4243 
 31           -2.002882E-03  6.788516E-03  7.077817E-03  106.4382 
 32           -2.253652E-03  7.632286E-03  7.958061E-03  106.4508 
 33           -2.492265E-03  8.434307E-03  8.794823E-03  106.462  
 34           -2.718444E-03  9.194096E-03  9.587562E-03  106.4715 
 35           -2.931729E-03  9.910651E-03  1.033518E-02  106.4791 
 36           -3.131532E-03  1.058267E-02  1.103627E-02  106.4841 
 37           -3.317163E-03  1.120867E-02  1.168922E-02  106.4859 
 38           -3.487781E-03  1.178693E-02  1.229213E-02  106.4836 
 39           -3.642374E-03  1.231544E-02  1.284277E-02  106.4759 
 40           -3.779248E-03  1.279042E-02  1.333707E-02  106.4611 
 41           -3.897373E-03  1.321015E-02  1.377307E-02  106.4376 
J             -3.974636E-03  1.351202E-02  1.408448E-02  106.3915 

********************     FAR FIELD      ********************

ZENITH ANGLE : INITIAL,INCREMENT,NUMBER: 0 , 10 , 10
AZIMUTH ANGLE: INITIAL,INCREMENT,NUMBER: 0 , 90 , 2

********************    PATTERN DATA    ********************
ZENITH        AZIMUTH       VERTICAL      HORIZONTAL    TOTAL
 ANGLE         ANGLE        PATTERN (DB)  PATTERN (DB)  PATTERN (DB)
 0             0            -999          -288.4187     -288.4187
 10            0            -10.9489      -288.5195     -10.9489 
 20            0            -5.028983     -288.8899     -5.028983
 30            0            -1.681247     -289.5548     -1.681247
 40            0             .561109      -290.5312      .561109 
 50            0             2.148938     -292.1021      2.148938
 60            0             3.274534     -294.262       3.274534
 70            0             4.032478     -297.36        4.032478
 80            0             4.471611     -999           4.471611
 90            0             4.615622     -999           4.615622
 0             90           -288.4187     -999          -288.4187
 10            90           -9.021465     -999          -9.021465
 20            90           -3.266699     -999          -3.266699
 30            90           -.174617      -999          -.174617 
 40            90            1.749631     -999           1.749631
 50            90            2.993249     -999           2.993249
 60            90            3.789795     -999           3.789795
 70            90            4.2753       -999           4.2753  
 80            90            4.5345       -999           4.5345  
 90            90            4.615622     -999           4.615622
