                   ****************************************
                     MINI-NUMERICAL ELECTROMAGNETICS CODE
                                   MININEC
                       2025-01-07              11:37:14
                   ****************************************
 
FREQUENCY (MHZ): 299.8
    WAVE LENGTH =  1 METERS
 
ENVIRONMENT (+1 FOR FREE SPACE, -1 FOR GROUND PLANE): -1
 NUMBER OF MEDIA (0 FOR PERFECTLY CONDUCTING GROUND):  0
 
NO. OF WIRES: 3
 
WIRE NO.1
            COORDINATES                                 END         NO. OF
   X             Y             Z          RADIUS     CONNECTION     SEGMENTS
 0             0             0                          -1
 0             0             .07958        .004          0             8
 
WIRE NO.2
            COORDINATES                                 END         NO. OF
   X             Y             Z          RADIUS     CONNECTION     SEGMENTS
 0            -.170423       .079581                     0
 0             0             .07958        .004         -1             17
 
WIRE NO.3
            COORDINATES                                 END         NO. OF
   X             Y             Z          RADIUS     CONNECTION     SEGMENTS
 0             .170423       .079581                     0
 0             0             .07958        .004         -1             17
 
                  **** ANTENNA GEOMETRY ****
 
WIRE NO.  1 COORDINATES                                 CONNECTION PULSE
X             Y             Z             RADIUS        END1 END2  NO.
 0             0             0             .004          -1    1    1
 0             0             .0099475      .004           1    1    2
 0             0             .019895       .004           1    1    3
 0             0             .0298425      .004           1    1    4
 0             0             .03979        .004           1    1    5
 0             0             .0497375      .004           1    1    6
 0             0             .059685       .004           1    1    7
 0             0             .0696325      .004           1    0    8
 
WIRE NO.  2 COORDINATES                                 CONNECTION PULSE
X             Y             Z             RADIUS        END1 END2  NO.
 0            -.16039812     .07958094     .004           0    2    9
 0            -.15037324     .07958088     .004           2    2   10
 0            -.14034835     .07958082     .004           2    2   11
 0            -.13032347     .07958076     .004           2    2   12
 0            -.12029859     .07958071     .004           2    2   13
 0            -.11027371     .07958065     .004           2    2   14
 0            -.10024882     .07958059     .004           2    2   15
 0            -.09022394     .07958053     .004           2    2   16
 0            -.08019906     .07958047     .004           2    2   17
 0            -.07017418     .07958041     .004           2    2   18
 0            -.06014929     .07958035     .004           2    2   19
 0            -.05012441     .07958029     .004           2    2   20
 0            -.04009953     .07958024     .004           2    2   21
 0            -.03007465     .07958018     .004           2    2   22
 0            -.02004976     .07958012     .004           2    2   23
 0            -.01002488     .07958006     .004           2    2   24
 0             0             .07958        .004           2   -1   25
 
WIRE NO.  3 COORDINATES                                 CONNECTION PULSE
X             Y             Z             RADIUS        END1 END2  NO.
 0             .16039812     .07958094     .004           0    3   26
 0             .15037324     .07958088     .004           3    3   27
 0             .14034835     .07958082     .004           3    3   28
 0             .13032347     .07958076     .004           3    3   29
 0             .12029859     .07958071     .004           3    3   30
 0             .11027371     .07958065     .004           3    3   31
 0             .10024882     .07958059     .004           3    3   32
 0             .09022394     .07958053     .004           3    3   33
 0             .08019906     .07958047     .004           3    3   34
 0             .07017418     .07958041     .004           3    3   35
 0             .06014929     .07958035     .004           3    3   36
 0             .05012441     .07958029     .004           3    3   37
 0             .04009953     .07958024     .004           3    3   38
 0             .03007465     .07958018     .004           3    3   39
 0             .02004976     .07958012     .004           3    3   40
 0             .01002488     .07958006     .004           3    3   41
 0             0             .07958        .004           3   -1   42
 
NO. OF SOURCES :  1
PULSE NO., VOLTAGE MAGNITUDE, PHASE (DEGREES):  1, 1, 0
NUMBER OF LOADS 0
 
********************    SOURCE DATA     ********************
PULSE  1      VOLTAGE = ( 1, 0J)
              CURRENT = ( .00829025,-.02546561J)
              IMPEDANCE = ( 11.558776, 35.50573J)
              POWER =  .00414512 WATTS
 
********************    CURRENT DATA    ********************
 
WIRE NO. 1:
PULSE         REAL          IMAGINARY     MAGNITUDE     PHASE
 NO.          (AMPS)        (AMPS)        (AMPS)        (DEGREES)
 1             .00829025    -.02546561     .02678106    -71.967508
 2             .00828338    -.02679473     .02804589    -72.821419
 3             .00826292    -.02709482     .02832675    -73.040236
 4             .00822927    -.02731823     .0285308     -73.23574
 5             .00818325    -.02741101     .02860646    -73.377597
 6             .00812616    -.02740341     .02858289    -73.482896
 7             .00806055    -.02730946     .02847419    -73.555714
 8             .00798906    -.02714068     .02829207    -73.597824
J              .00794485    -.02701653     .0281605     -73.612771
 
WIRE NO. 2:
PULSE         REAL          IMAGINARY     MAGNITUDE     PHASE
 NO.          (AMPS)        (AMPS)        (AMPS)        (DEGREES)
E              0             0             0             0
 9            -5.450271E-04  .00185763     .00193594     106.35161
 10           -8.642979E-04  .00294199     .00306632     106.37174
 11           -.00117403     .00399185     .00416091     106.38894
 12           -.00146354     .00497108     .00518204     106.40503
 13           -.00173908     .00590128     .0061522      106.41999
 14           -.00200189     .00678704     .00707612     106.43382
 15           -.00225253     .00763063     .00795615     106.44642
 16           -.00249103     .00843247     .00879272     106.45763
 17           -.0027171      .0091921      .00958527     106.46718
 18           -.00293028     .0099085      .01033271     106.47473
 19           -.00312999     .01058038     .01103365     106.47976
 20           -.00331553     .01120624     .01168643     106.4816
 21           -.00348606     .01178439     .01228921     106.47929
 22           -.00364059     .0123128      .01283974     106.47162
 23           -.0037774      .01278769     .01333393     106.45677
 24           -.00389552     .01320754     .01377005     106.43326
J             -.00397243     .01350826     .01408025     106.38723
 
WIRE NO. 3:
PULSE         REAL          IMAGINARY     MAGNITUDE     PHASE
 NO.          (AMPS)        (AMPS)        (AMPS)        (DEGREES)
E              0             0             0             0
 26           -5.450271E-04  .00185763     .00193594     106.35161
 27           -8.642979E-04  .00294199     .00306632     106.37174
 28           -.00117403     .00399185     .00416091     106.38894
 29           -.00146354     .00497108     .00518204     106.40503
 30           -.00173908     .00590128     .0061522      106.41999
 31           -.00200189     .00678704     .00707612     106.43382
 32           -.00225253     .00763063     .00795615     106.44642
 33           -.00249103     .00843247     .00879272     106.45763
 34           -.0027171      .0091921      .00958527     106.46718
 35           -.00293028     .0099085      .01033271     106.47473
 36           -.00312999     .01058038     .01103365     106.47976
 37           -.00331553     .01120624     .01168643     106.4816
 38           -.00348606     .01178439     .01228921     106.47929
 39           -.00364059     .0123128      .01283974     106.47162
 40           -.0037774      .01278769     .01333393     106.45677
 41           -.00389552     .01320754     .01377005     106.43326
J             -.00397243     .01350826     .01408025     106.38723
 
********************     FAR FIELD      ********************
 
ZENITH ANGLE : INITIAL,INCREMENT,NUMBER:  0, 10, 10
AZIMUTH ANGLE: INITIAL,INCREMENT,NUMBER:  0, 90, 2
 
 
********************    PATTERN DATA    ********************
ZENITH        AZIMUTH       VERTICAL      HORIZONTAL    TOTAL
 ANGLE         ANGLE        PATTERN (DB)  PATTERN (DB)  PATTERN (DB)
 0             0            -999          -276.58317    -276.58317
 10            0            -10.948893    -276.7583     -10.948893
 20            0            -5.0289795    -277.008      -5.0289795
 30            0            -1.6812435    -277.68875    -1.6812435
 40            0             .56111367    -278.66649     .56111367
 50            0             2.1489428    -280.11236     2.1489428
 60            0             3.2745384    -282.48318     3.2745384
 70            0             4.032483     -285.31935     4.032483
 80            0             4.4716157    -291.32428     4.4716157
 90            0             4.6156266    -999           4.6156266
 0             90           -276.58317    -999          -276.58317
 10            90           -9.0214478    -999          -9.0214478
 20            90           -3.2666833    -999          -3.2666833
 30            90           -.17460415    -999          -.17460415
 40            90            1.7496407    -999           1.7496407
 50            90            2.9932556    -999           2.9932556
 60            90            3.7897981    -999           3.7897981
 70            90            4.2753002    -999           4.2753002
 80            90            4.5344986    -999           4.5344986
 90            90            4.6156194    -999           4.6156194
