                   ****************************************
                     MINI-NUMERICAL ELECTROMAGNETICS CODE
                                   MININEC
                       07-02-2022              19:27:01
                   ****************************************
 
FREQUENCY (MHZ): 28.074 
    WAVE LENGTH =  10.67892  METERS
 
ENVIRONMENT (+1 FOR FREE SPACE, -1 FOR GROUND PLANE): -1 
 NUMBER OF MEDIA (0 FOR PERFECTLY CONDUCTING GROUND):  1 
 RELATIVE DIELECTRIC CONSTANT, CONDUCTIVITY:  13 , .005 
 
NO. OF WIRES: 1 
 
WIRE NO. 1 
            COORDINATES                                 END         NO. OF
   X             Y             Z          RADIUS     CONNECTION     SEGMENTS
 0             0             7.33                        0 
 0             0             12.7          .01           0             10 
 
                  **** ANTENNA GEOMETRY ****
 
WIRE NO.  1  COORDINATES                                CONNECTION PULSE
X             Y             Z             RADIUS        END1 END2  NO.
 0             0             7.867         .01            0    1    1
 0             0             8.404         .01            1    1    2
 0             0             8.941         .01            1    1    3
 0             0             9.478         .01            1    1    4
 0             0             10.015        .01            1    1    5
 0             0             10.552        .01            1    1    6
 0             0             11.089        .01            1    1    7
 0             0             11.626        .01            1    1    8
 0             0             12.163        .01            1    0    9
 
NO. OF SOURCES :  1 
PULSE NO., VOLTAGE MAGNITUDE, PHASE (DEGREES):  5 , 1 , 0 
NUMBER OF LOADS 0 
 
********************    SOURCE DATA     ********************
PULSE  5      VOLTAGE = ( 1 , 0 J)
              CURRENT = ( 9.546476E-03 ,-5.103065E-03 J)
              IMPEDANCE = ( 81.47093 , 43.55025 J)
              POWER =  4.773238E-03  WATTS
 
********************    CURRENT DATA    ********************
 
WIRE NO.  1 :
PULSE         REAL          IMAGINARY     MAGNITUDE     PHASE
 NO.          (AMPS)        (AMPS)        (AMPS)        (DEGREES)
E              0             0             0             0 
 1             3.223094E-03 -2.285014E-03  3.950901E-03 -35.33474 
 2             5.822454E-03 -3.956823E-03  7.039703E-03 -34.19924 
 3             7.830166E-03 -5.054334E-03  9.319751E-03 -32.84205 
 4             9.105726E-03 -5.48566E-03   1.063046E-02 -31.06647 
 5             9.546476E-03 -5.103065E-03  1.082481E-02 -28.12671 
 6             9.114996E-03 -5.485157E-03  1.063814E-02 -31.03838 
 7             7.846141E-03 -5.053389E-03  9.332666E-03 -32.78398 
 8             5.840334E-03 -3.95561E-03   7.053818E-03 -34.10945 
 9             3.236368E-03 -2.283943E-03  3.96112E-03  -35.21107 
E              0             0             0             0 
 
********************     FAR FIELD      ********************
 
ZENITH ANGLE : INITIAL,INCREMENT,NUMBER:  0 , 10 , 10 
AZIMUTH ANGLE: INITIAL,INCREMENT,NUMBER:  0 , 10 , 37 
 
 
FILENAME (NAME.OUT): VD01GA.GNN
 
********************    PATTERN DATA    ********************
ZENITH        AZIMUTH       VERTICAL      HORIZONTAL    TOTAL
 ANGLE         ANGLE        PATTERN (DB)  PATTERN (DB)  PATTERN (DB)
 0             0            -999          -999          -999 
 10            0            -12.01043     -999          -12.01043 
 20            0            -7.332815     -999          -7.332815 
 30            0            -7.704135     -999          -7.704135 
 40            0            -7.975159     -999          -7.975159 
 50            0             .1697484     -999           .1697484 
 60            0             2.730627     -999           2.730627 
 70            0             1.155564     -999           1.155564 
 80            0             2.563056     -999           2.563056 
 90            0            -117.1587     -999          -117.1587 
 0             10           -999          -999          -999 
 10            10           -12.01043     -999          -12.01043 
 20            10           -7.332815     -999          -7.332815 
 30            10           -7.704135     -999          -7.704135 
 40            10           -7.975159     -999          -7.975159 
 50            10            .1697484     -999           .1697484 
 60            10            2.730627     -999           2.730627 
 70            10            1.155564     -999           1.155564 
 80            10            2.563056     -999           2.563056 
 90            10           -117.1587     -999          -117.1587 
 0             20           -999          -999          -999 
 10            20           -12.01043     -999          -12.01043 
 20            20           -7.332815     -999          -7.332815 
 30            20           -7.704135     -999          -7.704135 
 40            20           -7.975159     -999          -7.975159 
 50            20            .1697484     -999           .1697484 
 60            20            2.730627     -999           2.730627 
 70            20            1.155564     -999           1.155564 
 80            20            2.563056     -999           2.563056 
 90            20           -117.1587     -999          -117.1587 
 0             30           -999          -999          -999 
 10            30           -12.01043     -999          -12.01043 
 20            30           -7.332815     -999          -7.332815 
 30            30           -7.704135     -999          -7.704135 
 40            30           -7.975159     -999          -7.975159 
 50            30            .1697484     -999           .1697484 
 60            30            2.730627     -999           2.730627 
 70            30            1.155564     -999           1.155564 
 80            30            2.563056     -999           2.563056 
 90            30           -117.1587     -999          -117.1587 
 0             40           -999          -999          -999 
 10            40           -12.01043     -999          -12.01043 
 20            40           -7.332815     -999          -7.332815 
 30            40           -7.704135     -999          -7.704135 
 40            40           -7.975159     -999          -7.975159 
 50            40            .1697484     -999           .1697484 
 60            40            2.730627     -999           2.730627 
 70            40            1.155564     -999           1.155564 
 80            40            2.563056     -999           2.563056 
 90            40           -117.1587     -999          -117.1587 
 0             50           -999          -999          -999 
 10            50           -12.01043     -999          -12.01043 
 20            50           -7.332815     -999          -7.332815 
 30            50           -7.704135     -999          -7.704135 
 40            50           -7.975159     -999          -7.975159 
 50            50            .1697484     -999           .1697484 
 60            50            2.730627     -999           2.730627 
 70            50            1.155564     -999           1.155564 
 80            50            2.563056     -999           2.563056 
 90            50           -117.1587     -999          -117.1587 
 0             60           -999          -999          -999 
 10            60           -12.01043     -999          -12.01043 
 20            60           -7.332815     -999          -7.332815 
 30            60           -7.704135     -999          -7.704135 
 40            60           -7.975159     -999          -7.975159 
 50            60            .1697484     -999           .1697484 
 60            60            2.730627     -999           2.730627 
 70            60            1.155564     -999           1.155564 
 80            60            2.563056     -999           2.563056 
 90            60           -117.1587     -999          -117.1587 
 0             70           -999          -999          -999 
 10            70           -12.01043     -999          -12.01043 
 20            70           -7.332815     -999          -7.332815 
 30            70           -7.704135     -999          -7.704135 
 40            70           -7.975159     -999          -7.975159 
 50            70            .1697484     -999           .1697484 
 60            70            2.730627     -999           2.730627 
 70            70            1.155564     -999           1.155564 
 80            70            2.563056     -999           2.563056 
 90            70           -117.1587     -999          -117.1587 
 0             80           -999          -999          -999 
 10            80           -12.01043     -999          -12.01043 
 20            80           -7.332815     -999          -7.332815 
 30            80           -7.704135     -999          -7.704135 
 40            80           -7.975159     -999          -7.975159 
 50            80            .1697484     -999           .1697484 
 60            80            2.730627     -999           2.730627 
 70            80            1.155564     -999           1.155564 
 80            80            2.563056     -999           2.563056 
 90            80           -117.1587     -999          -117.1587 
 0             90           -999          -999          -999 
 10            90           -12.01043     -999          -12.01043 
 20            90           -7.332815     -999          -7.332815 
 30            90           -7.704135     -999          -7.704135 
 40            90           -7.975159     -999          -7.975159 
 50            90            .1697484     -999           .1697484 
 60            90            2.730627     -999           2.730627 
 70            90            1.155564     -999           1.155564 
 80            90            2.563056     -999           2.563056 
 90            90           -117.1587     -999          -117.1587 
 0             100          -999          -999          -999 
 10            100          -12.01043     -999          -12.01043 
 20            100          -7.332815     -999          -7.332815 
 30            100          -7.704135     -999          -7.704135 
 40            100          -7.975159     -999          -7.975159 
 50            100           .1697484     -999           .1697484 
 60            100           2.730627     -999           2.730627 
 70            100           1.155564     -999           1.155564 
 80            100           2.563056     -999           2.563056 
 90            100          -117.1587     -999          -117.1587 
 0             110          -999          -999          -999 
 10            110          -12.01043     -999          -12.01043 
 20            110          -7.332815     -999          -7.332815 
 30            110          -7.704135     -999          -7.704135 
 40            110          -7.975159     -999          -7.975159 
 50            110           .1697484     -999           .1697484 
 60            110           2.730627     -999           2.730627 
 70            110           1.155564     -999           1.155564 
 80            110           2.563056     -999           2.563056 
 90            110          -117.1587     -999          -117.1587 
 0             120          -999          -999          -999 
 10            120          -12.01043     -999          -12.01043 
 20            120          -7.332815     -999          -7.332815 
 30            120          -7.704135     -999          -7.704135 
 40            120          -7.975159     -999          -7.975159 
 50            120           .1697484     -999           .1697484 
 60            120           2.730627     -999           2.730627 
 70            120           1.155564     -999           1.155564 
 80            120           2.563056     -999           2.563056 
 90            120          -117.1587     -999          -117.1587 
 0             130          -999          -999          -999 
 10            130          -12.01043     -999          -12.01043 
 20            130          -7.332815     -999          -7.332815 
 30            130          -7.704135     -999          -7.704135 
 40            130          -7.975159     -999          -7.975159 
 50            130           .1697484     -999           .1697484 
 60            130           2.730627     -999           2.730627 
 70            130           1.155564     -999           1.155564 
 80            130           2.563056     -999           2.563056 
 90            130          -117.1587     -999          -117.1587 
 0             140          -999          -999          -999 
 10            140          -12.01043     -999          -12.01043 
 20            140          -7.332815     -999          -7.332815 
 30            140          -7.704135     -999          -7.704135 
 40            140          -7.975159     -999          -7.975159 
 50            140           .1697484     -999           .1697484 
 60            140           2.730627     -999           2.730627 
 70            140           1.155564     -999           1.155564 
 80            140           2.563056     -999           2.563056 
 90            140          -117.1587     -999          -117.1587 
 0             150          -999          -999          -999 
 10            150          -12.01043     -999          -12.01043 
 20            150          -7.332815     -999          -7.332815 
 30            150          -7.704135     -999          -7.704135 
 40            150          -7.975159     -999          -7.975159 
 50            150           .1697484     -999           .1697484 
 60            150           2.730627     -999           2.730627 
 70            150           1.155564     -999           1.155564 
 80            150           2.563056     -999           2.563056 
 90            150          -117.1587     -999          -117.1587 
 0             160          -999          -999          -999 
 10            160          -12.01043     -999          -12.01043 
 20            160          -7.332815     -999          -7.332815 
 30            160          -7.704135     -999          -7.704135 
 40            160          -7.975159     -999          -7.975159 
 50            160           .1697484     -999           .1697484 
 60            160           2.730627     -999           2.730627 
 70            160           1.155564     -999           1.155564 
 80            160           2.563056     -999           2.563056 
 90            160          -117.1587     -999          -117.1587 
 0             170          -999          -999          -999 
 10            170          -12.01043     -999          -12.01043 
 20            170          -7.332815     -999          -7.332815 
 30            170          -7.704135     -999          -7.704135 
 40            170          -7.975159     -999          -7.975159 
 50            170           .1697484     -999           .1697484 
 60            170           2.730627     -999           2.730627 
 70            170           1.155564     -999           1.155564 
 80            170           2.563056     -999           2.563056 
 90            170          -117.1587     -999          -117.1587 
 0             180          -999          -999          -999 
 10            180          -12.01043     -999          -12.01043 
 20            180          -7.332815     -999          -7.332815 
 30            180          -7.704135     -999          -7.704135 
 40            180          -7.975159     -999          -7.975159 
 50            180           .1697484     -999           .1697484 
 60            180           2.730627     -999           2.730627 
 70            180           1.155564     -999           1.155564 
 80            180           2.563056     -999           2.563056 
 90            180          -117.1587     -999          -117.1587 
 0             190          -999          -999          -999 
 10            190          -12.01043     -999          -12.01043 
 20            190          -7.332815     -999          -7.332815 
 30            190          -7.704135     -999          -7.704135 
 40            190          -7.975159     -999          -7.975159 
 50            190           .1697484     -999           .1697484 
 60            190           2.730627     -999           2.730627 
 70            190           1.155564     -999           1.155564 
 80            190           2.563056     -999           2.563056 
 90            190          -117.1587     -999          -117.1587 
 0             200          -999          -999          -999 
 10            200          -12.01043     -999          -12.01043 
 20            200          -7.332815     -999          -7.332815 
 30            200          -7.704135     -999          -7.704135 
 40            200          -7.975159     -999          -7.975159 
 50            200           .1697484     -999           .1697484 
 60            200           2.730627     -999           2.730627 
 70            200           1.155564     -999           1.155564 
 80            200           2.563056     -999           2.563056 
 90            200          -117.1587     -999          -117.1587 
 0             210          -999          -999          -999 
 10            210          -12.01043     -999          -12.01043 
 20            210          -7.332815     -999          -7.332815 
 30            210          -7.704135     -999          -7.704135 
 40            210          -7.975159     -999          -7.975159 
 50            210           .1697484     -999           .1697484 
 60            210           2.730627     -999           2.730627 
 70            210           1.155564     -999           1.155564 
 80            210           2.563056     -999           2.563056 
 90            210          -117.1587     -999          -117.1587 
 0             220          -999          -999          -999 
 10            220          -12.01043     -999          -12.01043 
 20            220          -7.332815     -999          -7.332815 
 30            220          -7.704135     -999          -7.704135 
 40            220          -7.975159     -999          -7.975159 
 50            220           .1697484     -999           .1697484 
 60            220           2.730627     -999           2.730627 
 70            220           1.155564     -999           1.155564 
 80            220           2.563056     -999           2.563056 
 90            220          -117.1587     -999          -117.1587 
 0             230          -999          -999          -999 
 10            230          -12.01043     -999          -12.01043 
 20            230          -7.332815     -999          -7.332815 
 30            230          -7.704135     -999          -7.704135 
 40            230          -7.975159     -999          -7.975159 
 50            230           .1697484     -999           .1697484 
 60            230           2.730627     -999           2.730627 
 70            230           1.155564     -999           1.155564 
 80            230           2.563056     -999           2.563056 
 90            230          -117.1587     -999          -117.1587 
 0             240          -999          -999          -999 
 10            240          -12.01043     -999          -12.01043 
 20            240          -7.332815     -999          -7.332815 
 30            240          -7.704135     -999          -7.704135 
 40            240          -7.975159     -999          -7.975159 
 50            240           .1697484     -999           .1697484 
 60            240           2.730627     -999           2.730627 
 70            240           1.155564     -999           1.155564 
 80            240           2.563056     -999           2.563056 
 90            240          -117.1587     -999          -117.1587 
 0             250          -999          -999          -999 
 10            250          -12.01043     -999          -12.01043 
 20            250          -7.332815     -999          -7.332815 
 30            250          -7.704135     -999          -7.704135 
 40            250          -7.975159     -999          -7.975159 
 50            250           .1697484     -999           .1697484 
 60            250           2.730627     -999           2.730627 
 70            250           1.155564     -999           1.155564 
 80            250           2.563056     -999           2.563056 
 90            250          -117.1587     -999          -117.1587 
 0             260          -999          -999          -999 
 10            260          -12.01043     -999          -12.01043 
 20            260          -7.332815     -999          -7.332815 
 30            260          -7.704135     -999          -7.704135 
 40            260          -7.975159     -999          -7.975159 
 50            260           .1697484     -999           .1697484 
 60            260           2.730627     -999           2.730627 
 70            260           1.155564     -999           1.155564 
 80            260           2.563056     -999           2.563056 
 90            260          -117.1587     -999          -117.1587 
 0             270          -999          -999          -999 
 10            270          -12.01043     -999          -12.01043 
 20            270          -7.332815     -999          -7.332815 
 30            270          -7.704135     -999          -7.704135 
 40            270          -7.975159     -999          -7.975159 
 50            270           .1697484     -999           .1697484 
 60            270           2.730627     -999           2.730627 
 70            270           1.155564     -999           1.155564 
 80            270           2.563056     -999           2.563056 
 90            270          -117.1587     -999          -117.1587 
 0             280          -999          -999          -999 
 10            280          -12.01043     -999          -12.01043 
 20            280          -7.332815     -999          -7.332815 
 30            280          -7.704135     -999          -7.704135 
 40            280          -7.975159     -999          -7.975159 
 50            280           .1697484     -999           .1697484 
 60            280           2.730627     -999           2.730627 
 70            280           1.155564     -999           1.155564 
 80            280           2.563056     -999           2.563056 
 90            280          -117.1587     -999          -117.1587 
 0             290          -999          -999          -999 
 10            290          -12.01043     -999          -12.01043 
 20            290          -7.332815     -999          -7.332815 
 30            290          -7.704135     -999          -7.704135 
 40            290          -7.975159     -999          -7.975159 
 50            290           .1697484     -999           .1697484 
 60            290           2.730627     -999           2.730627 
 70            290           1.155564     -999           1.155564 
 80            290           2.563056     -999           2.563056 
 90            290          -117.1587     -999          -117.1587 
 0             300          -999          -999          -999 
 10            300          -12.01043     -999          -12.01043 
 20            300          -7.332815     -999          -7.332815 
 30            300          -7.704135     -999          -7.704135 
 40            300          -7.975159     -999          -7.975159 
 50            300           .1697484     -999           .1697484 
 60            300           2.730627     -999           2.730627 
 70            300           1.155564     -999           1.155564 
 80            300           2.563056     -999           2.563056 
 90            300          -117.1587     -999          -117.1587 
 0             310          -999          -999          -999 
 10            310          -12.01043     -999          -12.01043 
 20            310          -7.332815     -999          -7.332815 
 30            310          -7.704135     -999          -7.704135 
 40            310          -7.975159     -999          -7.975159 
 50            310           .1697484     -999           .1697484 
 60            310           2.730627     -999           2.730627 
 70            310           1.155564     -999           1.155564 
 80            310           2.563056     -999           2.563056 
 90            310          -117.1587     -999          -117.1587 
 0             320          -999          -999          -999 
 10            320          -12.01043     -999          -12.01043 
 20            320          -7.332815     -999          -7.332815 
 30            320          -7.704135     -999          -7.704135 
 40            320          -7.975159     -999          -7.975159 
 50            320           .1697484     -999           .1697484 
 60            320           2.730627     -999           2.730627 
 70            320           1.155564     -999           1.155564 
 80            320           2.563056     -999           2.563056 
 90            320          -117.1587     -999          -117.1587 
 0             330          -999          -999          -999 
 10            330          -12.01043     -999          -12.01043 
 20            330          -7.332815     -999          -7.332815 
 30            330          -7.704135     -999          -7.704135 
 40            330          -7.975159     -999          -7.975159 
 50            330           .1697484     -999           .1697484 
 60            330           2.730627     -999           2.730627 
 70            330           1.155564     -999           1.155564 
 80            330           2.563056     -999           2.563056 
 90            330          -117.1587     -999          -117.1587 
 0             340          -999          -999          -999 
 10            340          -12.01043     -999          -12.01043 
 20            340          -7.332815     -999          -7.332815 
 30            340          -7.704135     -999          -7.704135 
 40            340          -7.975159     -999          -7.975159 
 50            340           .1697484     -999           .1697484 
 60            340           2.730627     -999           2.730627 
 70            340           1.155564     -999           1.155564 
 80            340           2.563056     -999           2.563056 
 90            340          -117.1587     -999          -117.1587 
 0             350          -999          -999          -999 
 10            350          -12.01043     -999          -12.01043 
 20            350          -7.332815     -999          -7.332815 
 30            350          -7.704135     -999          -7.704135 
 40            350          -7.975159     -999          -7.975159 
 50            350           .1697484     -999           .1697484 
 60            350           2.730627     -999           2.730627 
 70            350           1.155564     -999           1.155564 
 80            350           2.563056     -999           2.563056 
 90            350          -117.1587     -999          -117.1587 
 0             360          -999          -999          -999 
 10            360          -12.01043     -999          -12.01043 
 20            360          -7.332815     -999          -7.332815 
 30            360          -7.704135     -999          -7.704135 
 40            360          -7.975159     -999          -7.975159 
 50            360           .1697484     -999           .1697484 
 60            360           2.730627     -999           2.730627 
 70            360           1.155564     -999           1.155564 
 80            360           2.563056     -999           2.563056 
 90            360          -117.1587     -999          -117.1587 
