                   ****************************************
                     MINI-NUMERICAL ELECTROMAGNETICS CODE
                                   MININEC
                   ****************************************

FREQUENCY (MHZ): 28.074
    WAVE LENGTH =  10.67892  METERS

ENVIRONMENT (+1 FOR FREE SPACE, -1 FOR GROUND PLANE): -1
 NUMBER OF MEDIA (0 FOR PERFECTLY CONDUCTING GROUND):  0

NO. OF GEO-OBJECTS: 1

WIRE NO. 1
            COORDINATES                                 END         NO. OF
   X             Y             Z          RADIUS     CONNECTION     SEGMENTS
 0             0             7.33                       0
 0             0             12.7          .01          0             10

                  **** ANTENNA GEOMETRY ****

WIRE NO.  1 COORDINATES                                 CONNECTION PULSE
X             Y             Z             RADIUS        END1 END2  NO.
 0             0             7.867         .01           0    1   1
 0             0             8.404         .01           1    1   2
 0             0             8.941         .01           1    1   3
 0             0             9.478         .01           1    1   4
 0             0             10.015        .01           1    1   5
 0             0             10.552        .01           1    1   6
 0             0             11.089        .01           1    1   7
 0             0             11.626        .01           1    1   8
 0             0             12.163        .01           1    0   9

NO. OF SOURCES :  1
PULSE NO., VOLTAGE MAGNITUDE, PHASE (DEGREES):  5 , 1 , 0
NUMBER OF LOADS 9
PULSE NO.,RESISTANCE,REACTANCE:  1 ,  .000002  ,  0       
PULSE NO.,RESISTANCE,REACTANCE:  2 ,  .000002  ,  0       
PULSE NO.,RESISTANCE,REACTANCE:  3 ,  .000002  ,  0       
PULSE NO.,RESISTANCE,REACTANCE:  4 ,  .000002  ,  0       
PULSE NO.,RESISTANCE,REACTANCE:  5 ,  .000002  ,  0       
PULSE NO.,RESISTANCE,REACTANCE:  6 ,  .000002  ,  0       
PULSE NO.,RESISTANCE,REACTANCE:  7 ,  .000002  ,  0       
PULSE NO.,RESISTANCE,REACTANCE:  8 ,  .000002  ,  0       
PULSE NO.,RESISTANCE,REACTANCE:  9 ,  .000002  ,  0       

********************    SOURCE DATA     ********************
PULSE  5      VOLTAGE = ( 1 , 0 J)
              CURRENT = ( 9.545565E-03 , -5.103540E-03 J)
              IMPEDANCE = ( 81.47187 ,  43.55897 J)
              POWER =  4.772783E-03  WATTS

********************    CURRENT DATA    ********************

WIRE NO.  1 :
PULSE         REAL          IMAGINARY     MAGNITUDE     PHASE
 NO.          (AMPS)        (AMPS)        (AMPS)        (DEGREES)
E              0             0             0             0
 1             3.222776E-03 -2.285167E-03  3.950731E-03 -35.33924 
 2             5.821888E-03 -3.957106E-03  7.039394E-03 -34.20374 
 3             7.829411E-03 -5.054720E-03  9.319328E-03 -32.84656 
 4             9.104855E-03 -5.486111E-03  1.062995E-02 -31.07098 
 5             9.545565E-03 -5.103540E-03  1.082423E-02 -28.13121 
 6             9.114123E-03 -5.485609E-03  1.063763E-02 -31.0429  
 7             7.845385E-03 -5.053775E-03  9.332240E-03 -32.78849 
 8             5.839765E-03 -3.955893E-03  7.053506E-03 -34.11396 
 9             3.236047E-03 -2.284097E-03  3.960947E-03 -35.21556 
E              0             0             0             0

********************     FAR FIELD      ********************

ZENITH ANGLE : INITIAL,INCREMENT,NUMBER: 0 , 10 , 10
AZIMUTH ANGLE: INITIAL,INCREMENT,NUMBER: 0 , 10 , 37

********************    PATTERN DATA    ********************
ZENITH        AZIMUTH       VERTICAL      HORIZONTAL    TOTAL
 ANGLE         ANGLE        PATTERN (DB)  PATTERN (DB)  PATTERN (DB)
 0             0            -999          -999          -999     
 10            0            -10.12896     -999          -10.12896
 20            0            -5.684139     -999          -5.684139
 30            0            -7.788551     -999          -7.788551
 40            0            -10.99708     -999          -10.99708
 50            0             3.067883     -999           3.067883
 60            0             6.272594     -999           6.272594
 70            0             .102828      -999           .102828 
 80            0             2.346654     -999           2.346654
 90            0             8.2135       -999           8.2135  
 0             10           -999          -999          -999     
 10            10           -10.12896     -999          -10.12896
 20            10           -5.684139     -999          -5.684139
 30            10           -7.788551     -999          -7.788551
 40            10           -10.99708     -999          -10.99708
 50            10            3.067883     -999           3.067883
 60            10            6.272594     -999           6.272594
 70            10            .102828      -999           .102828 
 80            10            2.346654     -999           2.346654
 90            10            8.2135       -999           8.2135  
 0             20           -999          -999          -999     
 10            20           -10.12896     -999          -10.12896
 20            20           -5.684139     -999          -5.684139
 30            20           -7.788551     -999          -7.788551
 40            20           -10.99708     -999          -10.99708
 50            20            3.067883     -999           3.067883
 60            20            6.272594     -999           6.272594
 70            20            .102828      -999           .102828 
 80            20            2.346654     -999           2.346654
 90            20            8.2135       -999           8.2135  
 0             30           -999          -999          -999     
 10            30           -10.12896     -999          -10.12896
 20            30           -5.684139     -999          -5.684139
 30            30           -7.788551     -999          -7.788551
 40            30           -10.99708     -999          -10.99708
 50            30            3.067883     -999           3.067883
 60            30            6.272594     -999           6.272594
 70            30            .102828      -999           .102828 
 80            30            2.346654     -999           2.346654
 90            30            8.2135       -999           8.2135  
 0             40           -999          -999          -999     
 10            40           -10.12896     -999          -10.12896
 20            40           -5.684139     -999          -5.684139
 30            40           -7.788551     -999          -7.788551
 40            40           -10.99708     -999          -10.99708
 50            40            3.067883     -999           3.067883
 60            40            6.272594     -999           6.272594
 70            40            .102828      -999           .102828 
 80            40            2.346654     -999           2.346654
 90            40            8.2135       -999           8.2135  
 0             50           -999          -999          -999     
 10            50           -10.12896     -999          -10.12896
 20            50           -5.684139     -999          -5.684139
 30            50           -7.788551     -999          -7.788551
 40            50           -10.99708     -999          -10.99708
 50            50            3.067883     -999           3.067883
 60            50            6.272594     -999           6.272594
 70            50            .102828      -999           .102828 
 80            50            2.346654     -999           2.346654
 90            50            8.2135       -999           8.2135  
 0             60           -999          -999          -999     
 10            60           -10.12896     -999          -10.12896
 20            60           -5.684139     -999          -5.684139
 30            60           -7.788551     -999          -7.788551
 40            60           -10.99708     -999          -10.99708
 50            60            3.067883     -999           3.067883
 60            60            6.272594     -999           6.272594
 70            60            .102828      -999           .102828 
 80            60            2.346654     -999           2.346654
 90            60            8.2135       -999           8.2135  
 0             70           -999          -999          -999     
 10            70           -10.12896     -999          -10.12896
 20            70           -5.684139     -999          -5.684139
 30            70           -7.788551     -999          -7.788551
 40            70           -10.99708     -999          -10.99708
 50            70            3.067883     -999           3.067883
 60            70            6.272594     -999           6.272594
 70            70            .102828      -999           .102828 
 80            70            2.346654     -999           2.346654
 90            70            8.2135       -999           8.2135  
 0             80           -999          -999          -999     
 10            80           -10.12896     -999          -10.12896
 20            80           -5.684139     -999          -5.684139
 30            80           -7.788551     -999          -7.788551
 40            80           -10.99708     -999          -10.99708
 50            80            3.067883     -999           3.067883
 60            80            6.272594     -999           6.272594
 70            80            .102828      -999           .102828 
 80            80            2.346654     -999           2.346654
 90            80            8.2135       -999           8.2135  
 0             90           -999          -999          -999     
 10            90           -10.12896     -999          -10.12896
 20            90           -5.684139     -999          -5.684139
 30            90           -7.788551     -999          -7.788551
 40            90           -10.99708     -999          -10.99708
 50            90            3.067883     -999           3.067883
 60            90            6.272594     -999           6.272594
 70            90            .102828      -999           .102828 
 80            90            2.346654     -999           2.346654
 90            90            8.2135       -999           8.2135  
 0             100          -999          -999          -999     
 10            100          -10.12896     -999          -10.12896
 20            100          -5.684139     -999          -5.684139
 30            100          -7.788551     -999          -7.788551
 40            100          -10.99708     -999          -10.99708
 50            100           3.067883     -999           3.067883
 60            100           6.272594     -999           6.272594
 70            100           .102828      -999           .102828 
 80            100           2.346654     -999           2.346654
 90            100           8.2135       -999           8.2135  
 0             110          -999          -999          -999     
 10            110          -10.12896     -999          -10.12896
 20            110          -5.684139     -999          -5.684139
 30            110          -7.788551     -999          -7.788551
 40            110          -10.99708     -999          -10.99708
 50            110           3.067883     -999           3.067883
 60            110           6.272594     -999           6.272594
 70            110           .102828      -999           .102828 
 80            110           2.346654     -999           2.346654
 90            110           8.2135       -999           8.2135  
 0             120          -999          -999          -999     
 10            120          -10.12896     -999          -10.12896
 20            120          -5.684139     -999          -5.684139
 30            120          -7.788551     -999          -7.788551
 40            120          -10.99708     -999          -10.99708
 50            120           3.067883     -999           3.067883
 60            120           6.272594     -999           6.272594
 70            120           .102828      -999           .102828 
 80            120           2.346654     -999           2.346654
 90            120           8.2135       -999           8.2135  
 0             130          -999          -999          -999     
 10            130          -10.12896     -999          -10.12896
 20            130          -5.684139     -999          -5.684139
 30            130          -7.788551     -999          -7.788551
 40            130          -10.99708     -999          -10.99708
 50            130           3.067883     -999           3.067883
 60            130           6.272594     -999           6.272594
 70            130           .102828      -999           .102828 
 80            130           2.346654     -999           2.346654
 90            130           8.2135       -999           8.2135  
 0             140          -999          -999          -999     
 10            140          -10.12896     -999          -10.12896
 20            140          -5.684139     -999          -5.684139
 30            140          -7.788551     -999          -7.788551
 40            140          -10.99708     -999          -10.99708
 50            140           3.067883     -999           3.067883
 60            140           6.272594     -999           6.272594
 70            140           .102828      -999           .102828 
 80            140           2.346654     -999           2.346654
 90            140           8.2135       -999           8.2135  
 0             150          -999          -999          -999     
 10            150          -10.12896     -999          -10.12896
 20            150          -5.684139     -999          -5.684139
 30            150          -7.788551     -999          -7.788551
 40            150          -10.99708     -999          -10.99708
 50            150           3.067883     -999           3.067883
 60            150           6.272594     -999           6.272594
 70            150           .102828      -999           .102828 
 80            150           2.346654     -999           2.346654
 90            150           8.2135       -999           8.2135  
 0             160          -999          -999          -999     
 10            160          -10.12896     -999          -10.12896
 20            160          -5.684139     -999          -5.684139
 30            160          -7.788551     -999          -7.788551
 40            160          -10.99708     -999          -10.99708
 50            160           3.067883     -999           3.067883
 60            160           6.272594     -999           6.272594
 70            160           .102828      -999           .102828 
 80            160           2.346654     -999           2.346654
 90            160           8.2135       -999           8.2135  
 0             170          -999          -999          -999     
 10            170          -10.12896     -999          -10.12896
 20            170          -5.684139     -999          -5.684139
 30            170          -7.788551     -999          -7.788551
 40            170          -10.99708     -999          -10.99708
 50            170           3.067883     -999           3.067883
 60            170           6.272594     -999           6.272594
 70            170           .102828      -999           .102828 
 80            170           2.346654     -999           2.346654
 90            170           8.2135       -999           8.2135  
 0             180          -999          -999          -999     
 10            180          -10.12896     -999          -10.12896
 20            180          -5.684139     -999          -5.684139
 30            180          -7.788551     -999          -7.788551
 40            180          -10.99708     -999          -10.99708
 50            180           3.067883     -999           3.067883
 60            180           6.272594     -999           6.272594
 70            180           .102828      -999           .102828 
 80            180           2.346654     -999           2.346654
 90            180           8.2135       -999           8.2135  
 0             190          -999          -999          -999     
 10            190          -10.12896     -999          -10.12896
 20            190          -5.684139     -999          -5.684139
 30            190          -7.788551     -999          -7.788551
 40            190          -10.99708     -999          -10.99708
 50            190           3.067883     -999           3.067883
 60            190           6.272594     -999           6.272594
 70            190           .102828      -999           .102828 
 80            190           2.346654     -999           2.346654
 90            190           8.2135       -999           8.2135  
 0             200          -999          -999          -999     
 10            200          -10.12896     -999          -10.12896
 20            200          -5.684139     -999          -5.684139
 30            200          -7.788551     -999          -7.788551
 40            200          -10.99708     -999          -10.99708
 50            200           3.067883     -999           3.067883
 60            200           6.272594     -999           6.272594
 70            200           .102828      -999           .102828 
 80            200           2.346654     -999           2.346654
 90            200           8.2135       -999           8.2135  
 0             210          -999          -999          -999     
 10            210          -10.12896     -999          -10.12896
 20            210          -5.684139     -999          -5.684139
 30            210          -7.788551     -999          -7.788551
 40            210          -10.99708     -999          -10.99708
 50            210           3.067883     -999           3.067883
 60            210           6.272594     -999           6.272594
 70            210           .102828      -999           .102828 
 80            210           2.346654     -999           2.346654
 90            210           8.2135       -999           8.2135  
 0             220          -999          -999          -999     
 10            220          -10.12896     -999          -10.12896
 20            220          -5.684139     -999          -5.684139
 30            220          -7.788551     -999          -7.788551
 40            220          -10.99708     -999          -10.99708
 50            220           3.067883     -999           3.067883
 60            220           6.272594     -999           6.272594
 70            220           .102828      -999           .102828 
 80            220           2.346654     -999           2.346654
 90            220           8.2135       -999           8.2135  
 0             230          -999          -999          -999     
 10            230          -10.12896     -999          -10.12896
 20            230          -5.684139     -999          -5.684139
 30            230          -7.788551     -999          -7.788551
 40            230          -10.99708     -999          -10.99708
 50            230           3.067883     -999           3.067883
 60            230           6.272594     -999           6.272594
 70            230           .102828      -999           .102828 
 80            230           2.346654     -999           2.346654
 90            230           8.2135       -999           8.2135  
 0             240          -999          -999          -999     
 10            240          -10.12896     -999          -10.12896
 20            240          -5.684139     -999          -5.684139
 30            240          -7.788551     -999          -7.788551
 40            240          -10.99708     -999          -10.99708
 50            240           3.067883     -999           3.067883
 60            240           6.272594     -999           6.272594
 70            240           .102828      -999           .102828 
 80            240           2.346654     -999           2.346654
 90            240           8.2135       -999           8.2135  
 0             250          -999          -999          -999     
 10            250          -10.12896     -999          -10.12896
 20            250          -5.684139     -999          -5.684139
 30            250          -7.788551     -999          -7.788551
 40            250          -10.99708     -999          -10.99708
 50            250           3.067883     -999           3.067883
 60            250           6.272594     -999           6.272594
 70            250           .102828      -999           .102828 
 80            250           2.346654     -999           2.346654
 90            250           8.2135       -999           8.2135  
 0             260          -999          -999          -999     
 10            260          -10.12896     -999          -10.12896
 20            260          -5.684139     -999          -5.684139
 30            260          -7.788551     -999          -7.788551
 40            260          -10.99708     -999          -10.99708
 50            260           3.067883     -999           3.067883
 60            260           6.272594     -999           6.272594
 70            260           .102828      -999           .102828 
 80            260           2.346654     -999           2.346654
 90            260           8.2135       -999           8.2135  
 0             270          -999          -999          -999     
 10            270          -10.12896     -999          -10.12896
 20            270          -5.684139     -999          -5.684139
 30            270          -7.788551     -999          -7.788551
 40            270          -10.99708     -999          -10.99708
 50            270           3.067883     -999           3.067883
 60            270           6.272594     -999           6.272594
 70            270           .102828      -999           .102828 
 80            270           2.346654     -999           2.346654
 90            270           8.2135       -999           8.2135  
 0             280          -999          -999          -999     
 10            280          -10.12896     -999          -10.12896
 20            280          -5.684139     -999          -5.684139
 30            280          -7.788551     -999          -7.788551
 40            280          -10.99708     -999          -10.99708
 50            280           3.067883     -999           3.067883
 60            280           6.272594     -999           6.272594
 70            280           .102828      -999           .102828 
 80            280           2.346654     -999           2.346654
 90            280           8.2135       -999           8.2135  
 0             290          -999          -999          -999     
 10            290          -10.12896     -999          -10.12896
 20            290          -5.684139     -999          -5.684139
 30            290          -7.788551     -999          -7.788551
 40            290          -10.99708     -999          -10.99708
 50            290           3.067883     -999           3.067883
 60            290           6.272594     -999           6.272594
 70            290           .102828      -999           .102828 
 80            290           2.346654     -999           2.346654
 90            290           8.2135       -999           8.2135  
 0             300          -999          -999          -999     
 10            300          -10.12896     -999          -10.12896
 20            300          -5.684139     -999          -5.684139
 30            300          -7.788551     -999          -7.788551
 40            300          -10.99708     -999          -10.99708
 50            300           3.067883     -999           3.067883
 60            300           6.272594     -999           6.272594
 70            300           .102828      -999           .102828 
 80            300           2.346654     -999           2.346654
 90            300           8.2135       -999           8.2135  
 0             310          -999          -999          -999     
 10            310          -10.12896     -999          -10.12896
 20            310          -5.684139     -999          -5.684139
 30            310          -7.788551     -999          -7.788551
 40            310          -10.99708     -999          -10.99708
 50            310           3.067883     -999           3.067883
 60            310           6.272594     -999           6.272594
 70            310           .102828      -999           .102828 
 80            310           2.346654     -999           2.346654
 90            310           8.2135       -999           8.2135  
 0             320          -999          -999          -999     
 10            320          -10.12896     -999          -10.12896
 20            320          -5.684139     -999          -5.684139
 30            320          -7.788551     -999          -7.788551
 40            320          -10.99708     -999          -10.99708
 50            320           3.067883     -999           3.067883
 60            320           6.272594     -999           6.272594
 70            320           .102828      -999           .102828 
 80            320           2.346654     -999           2.346654
 90            320           8.2135       -999           8.2135  
 0             330          -999          -999          -999     
 10            330          -10.12896     -999          -10.12896
 20            330          -5.684139     -999          -5.684139
 30            330          -7.788551     -999          -7.788551
 40            330          -10.99708     -999          -10.99708
 50            330           3.067883     -999           3.067883
 60            330           6.272594     -999           6.272594
 70            330           .102828      -999           .102828 
 80            330           2.346654     -999           2.346654
 90            330           8.2135       -999           8.2135  
 0             340          -999          -999          -999     
 10            340          -10.12896     -999          -10.12896
 20            340          -5.684139     -999          -5.684139
 30            340          -7.788551     -999          -7.788551
 40            340          -10.99708     -999          -10.99708
 50            340           3.067883     -999           3.067883
 60            340           6.272594     -999           6.272594
 70            340           .102828      -999           .102828 
 80            340           2.346654     -999           2.346654
 90            340           8.2135       -999           8.2135  
 0             350          -999          -999          -999     
 10            350          -10.12896     -999          -10.12896
 20            350          -5.684139     -999          -5.684139
 30            350          -7.788551     -999          -7.788551
 40            350          -10.99708     -999          -10.99708
 50            350           3.067883     -999           3.067883
 60            350           6.272594     -999           6.272594
 70            350           .102828      -999           .102828 
 80            350           2.346654     -999           2.346654
 90            350           8.2135       -999           8.2135  
 0             360          -999          -999          -999     
 10            360          -10.12896     -999          -10.12896
 20            360          -5.684139     -999          -5.684139
 30            360          -7.788551     -999          -7.788551
 40            360          -10.99708     -999          -10.99708
 50            360           3.067883     -999           3.067883
 60            360           6.272594     -999           6.272594
 70            360           .102828      -999           .102828 
 80            360           2.346654     -999           2.346654
 90            360           8.2135       -999           8.2135  