                   ****************************************
                     MINI-NUMERICAL ELECTROMAGNETICS CODE
                                   MININEC
                       06-23-2022              14:14:16
                   ****************************************
 
FREQUENCY (MHZ): 28.074 
    WAVE LENGTH =  10.67892  METERS
 
ENVIRONMENT (+1 FOR FREE SPACE, -1 FOR GROUND PLANE):  1 
 
NO. OF WIRES: 1 
 
WIRE NO. 1 
            COORDINATES                                 END         NO. OF
   X             Y             Z          RADIUS     CONNECTION     SEGMENTS
 0             0             7.33                        0 
 0             0             12.7          .01           0             10 
 
                  **** ANTENNA GEOMETRY ****
 
WIRE NO.  1  COORDINATES                                CONNECTION PULSE
X             Y             Z             RADIUS        END1 END2  NO.
 0             0             7.867         .01            0    1    1
 0             0             8.404         .01            1    1    2
 0             0             8.941         .01            1    1    3
 0             0             9.478         .01            1    1    4
 0             0             10.015        .01            1    1    5
 0             0             10.552        .01            1    1    6
 0             0             11.089        .01            1    1    7
 0             0             11.626        .01            1    1    8
 0             0             12.163        .01            1    0    9
 
NO. OF SOURCES :  1 
PULSE NO., VOLTAGE MAGNITUDE, PHASE (DEGREES):  5 , 1 , 0 
NUMBER OF LOADS 0 
 
FILL MATRIX  : 0:01
FACTOR MATRIX: 0:00
 
********************    SOURCE DATA     ********************
PULSE  5      VOLTAGE = ( 1 , 0 J)
              CURRENT = ( 9.412343E-03 ,-5.064898E-03 J)
              IMPEDANCE = ( 82.38707 , 44.3335 J)
              POWER =  4.706172E-03  WATTS
 
********************     FAR FIELD      ********************
 
ZENITH ANGLE : INITIAL,INCREMENT,NUMBER:  0 , 10 , 19 
AZIMUTH ANGLE: INITIAL,INCREMENT,NUMBER:  0 , 10 , 37 
 
 
FILENAME (NAME.OUT): VDIP01.GNN
 
********************    PATTERN DATA    ********************
ZENITH        AZIMUTH       VERTICAL      HORIZONTAL    TOTAL
 ANGLE         ANGLE        PATTERN (DB)  PATTERN (DB)  PATTERN (DB)
 0             0            -999          -999          -999 
 10            0            -15.15348     -999          -15.15348 
 20            0            -9.071291     -999          -9.071291 
 30            0            -5.477647     -999          -5.477647 
 40            0            -2.937903     -999          -2.937903 
 50            0            -1.038531     -999          -1.038531 
 60            0             .3753693     -999           .3753693 
 70            0             1.365271     -999           1.365271 
 80            0             1.954355     -999           1.954355 
 90            0             2.150184     -999           2.150184 
 100           0             1.954358     -999           1.954358 
 110           0             1.365271     -999           1.365271 
 120           0             .3753674     -999           .3753674 
 130           0            -1.038531     -999          -1.038531 
 140           0            -2.937901     -999          -2.937901 
 150           0            -5.477649     -999          -5.477649 
 160           0            -9.071285     -999          -9.071285 
 170           0            -15.15347     -999          -15.15347 
 180           0            -136.437      -999          -136.437 
 0             10           -999          -999          -999 
 10            10           -15.15348     -999          -15.15348 
 20            10           -9.071291     -999          -9.071291 
 30            10           -5.477647     -999          -5.477647 
 40            10           -2.937903     -999          -2.937903 
 50            10           -1.038531     -999          -1.038531 
 60            10            .3753693     -999           .3753693 
 70            10            1.365271     -999           1.365271 
 80            10            1.954355     -999           1.954355 
 90            10            2.150184     -999           2.150184 
 100           10            1.954358     -999           1.954358 
 110           10            1.365271     -999           1.365271 
 120           10            .3753674     -999           .3753674 
 130           10           -1.038531     -999          -1.038531 
 140           10           -2.937901     -999          -2.937901 
 150           10           -5.477649     -999          -5.477649 
 160           10           -9.071285     -999          -9.071285 
 170           10           -15.15347     -999          -15.15347 
 180           10           -136.437      -999          -136.437 
 0             20           -999          -999          -999 
 10            20           -15.15348     -999          -15.15348 
 20            20           -9.071291     -999          -9.071291 
 30            20           -5.477647     -999          -5.477647 
 40            20           -2.937903     -999          -2.937903 
 50            20           -1.038531     -999          -1.038531 
 60            20            .3753693     -999           .3753693 
 70            20            1.365271     -999           1.365271 
 80            20            1.954355     -999           1.954355 
 90            20            2.150184     -999           2.150184 
 100           20            1.954358     -999           1.954358 
 110           20            1.365271     -999           1.365271 
 120           20            .3753674     -999           .3753674 
 130           20           -1.038531     -999          -1.038531 
 140           20           -2.937901     -999          -2.937901 
 150           20           -5.477649     -999          -5.477649 
 160           20           -9.071285     -999          -9.071285 
 170           20           -15.15347     -999          -15.15347 
 180           20           -136.437      -999          -136.437 
 0             30           -999          -999          -999 
 10            30           -15.15348     -999          -15.15348 
 20            30           -9.071291     -999          -9.071291 
 30            30           -5.477647     -999          -5.477647 
 40            30           -2.937903     -999          -2.937903 
 50            30           -1.038531     -999          -1.038531 
 60            30            .3753693     -999           .3753693 
 70            30            1.365271     -999           1.365271 
 80            30            1.954355     -999           1.954355 
 90            30            2.150184     -999           2.150184 
 100           30            1.954358     -999           1.954358 
 110           30            1.365271     -999           1.365271 
 120           30            .3753674     -999           .3753674 
 130           30           -1.038531     -999          -1.038531 
 140           30           -2.937901     -999          -2.937901 
 150           30           -5.477649     -999          -5.477649 
 160           30           -9.071285     -999          -9.071285 
 170           30           -15.15347     -999          -15.15347 
 180           30           -136.437      -999          -136.437 
 0             40           -999          -999          -999 
 10            40           -15.15348     -999          -15.15348 
 20            40           -9.071291     -999          -9.071291 
 30            40           -5.477647     -999          -5.477647 
 40            40           -2.937903     -999          -2.937903 
 50            40           -1.038531     -999          -1.038531 
 60            40            .3753693     -999           .3753693 
 70            40            1.365271     -999           1.365271 
 80            40            1.954355     -999           1.954355 
 90            40            2.150184     -999           2.150184 
 100           40            1.954358     -999           1.954358 
 110           40            1.365271     -999           1.365271 
 120           40            .3753674     -999           .3753674 
 130           40           -1.038531     -999          -1.038531 
 140           40           -2.937901     -999          -2.937901 
 150           40           -5.477649     -999          -5.477649 
 160           40           -9.071285     -999          -9.071285 
 170           40           -15.15347     -999          -15.15347 
 180           40           -136.437      -999          -136.437 
 0             50           -999          -999          -999 
 10            50           -15.15348     -999          -15.15348 
 20            50           -9.071291     -999          -9.071291 
 30            50           -5.477647     -999          -5.477647 
 40            50           -2.937903     -999          -2.937903 
 50            50           -1.038531     -999          -1.038531 
 60            50            .3753693     -999           .3753693 
 70            50            1.365271     -999           1.365271 
 80            50            1.954355     -999           1.954355 
 90            50            2.150184     -999           2.150184 
 100           50            1.954358     -999           1.954358 
 110           50            1.365271     -999           1.365271 
 120           50            .3753674     -999           .3753674 
 130           50           -1.038531     -999          -1.038531 
 140           50           -2.937901     -999          -2.937901 
 150           50           -5.477649     -999          -5.477649 
 160           50           -9.071285     -999          -9.071285 
 170           50           -15.15347     -999          -15.15347 
 180           50           -136.437      -999          -136.437 
 0             60           -999          -999          -999 
 10            60           -15.15348     -999          -15.15348 
 20            60           -9.071291     -999          -9.071291 
 30            60           -5.477647     -999          -5.477647 
 40            60           -2.937903     -999          -2.937903 
 50            60           -1.038531     -999          -1.038531 
 60            60            .3753693     -999           .3753693 
 70            60            1.365271     -999           1.365271 
 80            60            1.954355     -999           1.954355 
 90            60            2.150184     -999           2.150184 
 100           60            1.954358     -999           1.954358 
 110           60            1.365271     -999           1.365271 
 120           60            .3753674     -999           .3753674 
 130           60           -1.038531     -999          -1.038531 
 140           60           -2.937901     -999          -2.937901 
 150           60           -5.477649     -999          -5.477649 
 160           60           -9.071285     -999          -9.071285 
 170           60           -15.15347     -999          -15.15347 
 180           60           -136.437      -999          -136.437 
 0             70           -999          -999          -999 
 10            70           -15.15348     -999          -15.15348 
 20            70           -9.071291     -999          -9.071291 
 30            70           -5.477647     -999          -5.477647 
 40            70           -2.937903     -999          -2.937903 
 50            70           -1.038531     -999          -1.038531 
 60            70            .3753693     -999           .3753693 
 70            70            1.365271     -999           1.365271 
 80            70            1.954355     -999           1.954355 
 90            70            2.150184     -999           2.150184 
 100           70            1.954358     -999           1.954358 
 110           70            1.365271     -999           1.365271 
 120           70            .3753674     -999           .3753674 
 130           70           -1.038531     -999          -1.038531 
 140           70           -2.937901     -999          -2.937901 
 150           70           -5.477649     -999          -5.477649 
 160           70           -9.071285     -999          -9.071285 
 170           70           -15.15347     -999          -15.15347 
 180           70           -136.437      -999          -136.437 
 0             80           -999          -999          -999 
 10            80           -15.15348     -999          -15.15348 
 20            80           -9.071291     -999          -9.071291 
 30            80           -5.477647     -999          -5.477647 
 40            80           -2.937903     -999          -2.937903 
 50            80           -1.038531     -999          -1.038531 
 60            80            .3753693     -999           .3753693 
 70            80            1.365271     -999           1.365271 
 80            80            1.954355     -999           1.954355 
 90            80            2.150184     -999           2.150184 
 100           80            1.954358     -999           1.954358 
 110           80            1.365271     -999           1.365271 
 120           80            .3753674     -999           .3753674 
 130           80           -1.038531     -999          -1.038531 
 140           80           -2.937901     -999          -2.937901 
 150           80           -5.477649     -999          -5.477649 
 160           80           -9.071285     -999          -9.071285 
 170           80           -15.15347     -999          -15.15347 
 180           80           -136.437      -999          -136.437 
 0             90           -999          -999          -999 
 10            90           -15.15348     -999          -15.15348 
 20            90           -9.071291     -999          -9.071291 
 30            90           -5.477647     -999          -5.477647 
 40            90           -2.937903     -999          -2.937903 
 50            90           -1.038531     -999          -1.038531 
 60            90            .3753693     -999           .3753693 
 70            90            1.365271     -999           1.365271 
 80            90            1.954355     -999           1.954355 
 90            90            2.150184     -999           2.150184 
 100           90            1.954358     -999           1.954358 
 110           90            1.365271     -999           1.365271 
 120           90            .3753674     -999           .3753674 
 130           90           -1.038531     -999          -1.038531 
 140           90           -2.937901     -999          -2.937901 
 150           90           -5.477649     -999          -5.477649 
 160           90           -9.071285     -999          -9.071285 
 170           90           -15.15347     -999          -15.15347 
 180           90           -136.437      -999          -136.437 
 0             100          -999          -999          -999 
 10            100          -15.15348     -999          -15.15348 
 20            100          -9.071291     -999          -9.071291 
 30            100          -5.477647     -999          -5.477647 
 40            100          -2.937903     -999          -2.937903 
 50            100          -1.038531     -999          -1.038531 
 60            100           .3753693     -999           .3753693 
 70            100           1.365271     -999           1.365271 
 80            100           1.954355     -999           1.954355 
 90            100           2.150184     -999           2.150184 
 100           100           1.954358     -999           1.954358 
 110           100           1.365271     -999           1.365271 
 120           100           .3753674     -999           .3753674 
 130           100          -1.038531     -999          -1.038531 
 140           100          -2.937901     -999          -2.937901 
 150           100          -5.477649     -999          -5.477649 
 160           100          -9.071285     -999          -9.071285 
 170           100          -15.15347     -999          -15.15347 
 180           100          -136.437      -999          -136.437 
 0             110          -999          -999          -999 
 10            110          -15.15348     -999          -15.15348 
 20            110          -9.071291     -999          -9.071291 
 30            110          -5.477647     -999          -5.477647 
 40            110          -2.937903     -999          -2.937903 
 50            110          -1.038531     -999          -1.038531 
 60            110           .3753693     -999           .3753693 
 70            110           1.365271     -999           1.365271 
 80            110           1.954355     -999           1.954355 
 90            110           2.150184     -999           2.150184 
 100           110           1.954358     -999           1.954358 
 110           110           1.365271     -999           1.365271 
 120           110           .3753674     -999           .3753674 
 130           110          -1.038531     -999          -1.038531 
 140           110          -2.937901     -999          -2.937901 
 150           110          -5.477649     -999          -5.477649 
 160           110          -9.071285     -999          -9.071285 
 170           110          -15.15347     -999          -15.15347 
 180           110          -136.437      -999          -136.437 
 0             120          -999          -999          -999 
 10            120          -15.15348     -999          -15.15348 
 20            120          -9.071291     -999          -9.071291 
 30            120          -5.477647     -999          -5.477647 
 40            120          -2.937903     -999          -2.937903 
 50            120          -1.038531     -999          -1.038531 
 60            120           .3753693     -999           .3753693 
 70            120           1.365271     -999           1.365271 
 80            120           1.954355     -999           1.954355 
 90            120           2.150184     -999           2.150184 
 100           120           1.954358     -999           1.954358 
 110           120           1.365271     -999           1.365271 
 120           120           .3753674     -999           .3753674 
 130           120          -1.038531     -999          -1.038531 
 140           120          -2.937901     -999          -2.937901 
 150           120          -5.477649     -999          -5.477649 
 160           120          -9.071285     -999          -9.071285 
 170           120          -15.15347     -999          -15.15347 
 180           120          -136.437      -999          -136.437 
 0             130          -999          -999          -999 
 10            130          -15.15348     -999          -15.15348 
 20            130          -9.071291     -999          -9.071291 
 30            130          -5.477647     -999          -5.477647 
 40            130          -2.937903     -999          -2.937903 
 50            130          -1.038531     -999          -1.038531 
 60            130           .3753693     -999           .3753693 
 70            130           1.365271     -999           1.365271 
 80            130           1.954355     -999           1.954355 
 90            130           2.150184     -999           2.150184 
 100           130           1.954358     -999           1.954358 
 110           130           1.365271     -999           1.365271 
 120           130           .3753674     -999           .3753674 
 130           130          -1.038531     -999          -1.038531 
 140           130          -2.937901     -999          -2.937901 
 150           130          -5.477649     -999          -5.477649 
 160           130          -9.071285     -999          -9.071285 
 170           130          -15.15347     -999          -15.15347 
 180           130          -136.437      -999          -136.437 
 0             140          -999          -999          -999 
 10            140          -15.15348     -999          -15.15348 
 20            140          -9.071291     -999          -9.071291 
 30            140          -5.477647     -999          -5.477647 
 40            140          -2.937903     -999          -2.937903 
 50            140          -1.038531     -999          -1.038531 
 60            140           .3753693     -999           .3753693 
 70            140           1.365271     -999           1.365271 
 80            140           1.954355     -999           1.954355 
 90            140           2.150184     -999           2.150184 
 100           140           1.954358     -999           1.954358 
 110           140           1.365271     -999           1.365271 
 120           140           .3753674     -999           .3753674 
 130           140          -1.038531     -999          -1.038531 
 140           140          -2.937901     -999          -2.937901 
 150           140          -5.477649     -999          -5.477649 
 160           140          -9.071285     -999          -9.071285 
 170           140          -15.15347     -999          -15.15347 
 180           140          -136.437      -999          -136.437 
 0             150          -999          -999          -999 
 10            150          -15.15348     -999          -15.15348 
 20            150          -9.071291     -999          -9.071291 
 30            150          -5.477647     -999          -5.477647 
 40            150          -2.937903     -999          -2.937903 
 50            150          -1.038531     -999          -1.038531 
 60            150           .3753693     -999           .3753693 
 70            150           1.365271     -999           1.365271 
 80            150           1.954355     -999           1.954355 
 90            150           2.150184     -999           2.150184 
 100           150           1.954358     -999           1.954358 
 110           150           1.365271     -999           1.365271 
 120           150           .3753674     -999           .3753674 
 130           150          -1.038531     -999          -1.038531 
 140           150          -2.937901     -999          -2.937901 
 150           150          -5.477649     -999          -5.477649 
 160           150          -9.071285     -999          -9.071285 
 170           150          -15.15347     -999          -15.15347 
 180           150          -136.437      -999          -136.437 
 0             160          -999          -999          -999 
 10            160          -15.15348     -999          -15.15348 
 20            160          -9.071291     -999          -9.071291 
 30            160          -5.477647     -999          -5.477647 
 40            160          -2.937903     -999          -2.937903 
 50            160          -1.038531     -999          -1.038531 
 60            160           .3753693     -999           .3753693 
 70            160           1.365271     -999           1.365271 
 80            160           1.954355     -999           1.954355 
 90            160           2.150184     -999           2.150184 
 100           160           1.954358     -999           1.954358 
 110           160           1.365271     -999           1.365271 
 120           160           .3753674     -999           .3753674 
 130           160          -1.038531     -999          -1.038531 
 140           160          -2.937901     -999          -2.937901 
 150           160          -5.477649     -999          -5.477649 
 160           160          -9.071285     -999          -9.071285 
 170           160          -15.15347     -999          -15.15347 
 180           160          -136.437      -999          -136.437 
 0             170          -999          -999          -999 
 10            170          -15.15348     -999          -15.15348 
 20            170          -9.071291     -999          -9.071291 
 30            170          -5.477647     -999          -5.477647 
 40            170          -2.937903     -999          -2.937903 
 50            170          -1.038531     -999          -1.038531 
 60            170           .3753693     -999           .3753693 
 70            170           1.365271     -999           1.365271 
 80            170           1.954355     -999           1.954355 
 90            170           2.150184     -999           2.150184 
 100           170           1.954358     -999           1.954358 
 110           170           1.365271     -999           1.365271 
 120           170           .3753674     -999           .3753674 
 130           170          -1.038531     -999          -1.038531 
 140           170          -2.937901     -999          -2.937901 
 150           170          -5.477649     -999          -5.477649 
 160           170          -9.071285     -999          -9.071285 
 170           170          -15.15347     -999          -15.15347 
 180           170          -136.437      -999          -136.437 
 0             180          -999          -999          -999 
 10            180          -15.15348     -999          -15.15348 
 20            180          -9.071291     -999          -9.071291 
 30            180          -5.477647     -999          -5.477647 
 40            180          -2.937903     -999          -2.937903 
 50            180          -1.038531     -999          -1.038531 
 60            180           .3753693     -999           .3753693 
 70            180           1.365271     -999           1.365271 
 80            180           1.954355     -999           1.954355 
 90            180           2.150184     -999           2.150184 
 100           180           1.954358     -999           1.954358 
 110           180           1.365271     -999           1.365271 
 120           180           .3753674     -999           .3753674 
 130           180          -1.038531     -999          -1.038531 
 140           180          -2.937901     -999          -2.937901 
 150           180          -5.477649     -999          -5.477649 
 160           180          -9.071285     -999          -9.071285 
 170           180          -15.15347     -999          -15.15347 
 180           180          -136.437      -999          -136.437 
 0             190          -999          -999          -999 
 10            190          -15.15348     -999          -15.15348 
 20            190          -9.071291     -999          -9.071291 
 30            190          -5.477647     -999          -5.477647 
 40            190          -2.937903     -999          -2.937903 
 50            190          -1.038531     -999          -1.038531 
 60            190           .3753693     -999           .3753693 
 70            190           1.365271     -999           1.365271 
 80            190           1.954355     -999           1.954355 
 90            190           2.150184     -999           2.150184 
 100           190           1.954358     -999           1.954358 
 110           190           1.365271     -999           1.365271 
 120           190           .3753674     -999           .3753674 
 130           190          -1.038531     -999          -1.038531 
 140           190          -2.937901     -999          -2.937901 
 150           190          -5.477649     -999          -5.477649 
 160           190          -9.071285     -999          -9.071285 
 170           190          -15.15347     -999          -15.15347 
 180           190          -136.437      -999          -136.437 
 0             200          -999          -999          -999 
 10            200          -15.15348     -999          -15.15348 
 20            200          -9.071291     -999          -9.071291 
 30            200          -5.477647     -999          -5.477647 
 40            200          -2.937903     -999          -2.937903 
 50            200          -1.038531     -999          -1.038531 
 60            200           .3753693     -999           .3753693 
 70            200           1.365271     -999           1.365271 
 80            200           1.954355     -999           1.954355 
 90            200           2.150184     -999           2.150184 
 100           200           1.954358     -999           1.954358 
 110           200           1.365271     -999           1.365271 
 120           200           .3753674     -999           .3753674 
 130           200          -1.038531     -999          -1.038531 
 140           200          -2.937901     -999          -2.937901 
 150           200          -5.477649     -999          -5.477649 
 160           200          -9.071285     -999          -9.071285 
 170           200          -15.15347     -999          -15.15347 
 180           200          -136.437      -999          -136.437 
 0             210          -999          -999          -999 
 10            210          -15.15348     -999          -15.15348 
 20            210          -9.071291     -999          -9.071291 
 30            210          -5.477647     -999          -5.477647 
 40            210          -2.937903     -999          -2.937903 
 50            210          -1.038531     -999          -1.038531 
 60            210           .3753693     -999           .3753693 
 70            210           1.365271     -999           1.365271 
 80            210           1.954355     -999           1.954355 
 90            210           2.150184     -999           2.150184 
 100           210           1.954358     -999           1.954358 
 110           210           1.365271     -999           1.365271 
 120           210           .3753674     -999           .3753674 
 130           210          -1.038531     -999          -1.038531 
 140           210          -2.937901     -999          -2.937901 
 150           210          -5.477649     -999          -5.477649 
 160           210          -9.071285     -999          -9.071285 
 170           210          -15.15347     -999          -15.15347 
 180           210          -136.437      -999          -136.437 
 0             220          -999          -999          -999 
 10            220          -15.15348     -999          -15.15348 
 20            220          -9.071291     -999          -9.071291 
 30            220          -5.477647     -999          -5.477647 
 40            220          -2.937903     -999          -2.937903 
 50            220          -1.038531     -999          -1.038531 
 60            220           .3753693     -999           .3753693 
 70            220           1.365271     -999           1.365271 
 80            220           1.954355     -999           1.954355 
 90            220           2.150184     -999           2.150184 
 100           220           1.954358     -999           1.954358 
 110           220           1.365271     -999           1.365271 
 120           220           .3753674     -999           .3753674 
 130           220          -1.038531     -999          -1.038531 
 140           220          -2.937901     -999          -2.937901 
 150           220          -5.477649     -999          -5.477649 
 160           220          -9.071285     -999          -9.071285 
 170           220          -15.15347     -999          -15.15347 
 180           220          -136.437      -999          -136.437 
 0             230          -999          -999          -999 
 10            230          -15.15348     -999          -15.15348 
 20            230          -9.071291     -999          -9.071291 
 30            230          -5.477647     -999          -5.477647 
 40            230          -2.937903     -999          -2.937903 
 50            230          -1.038531     -999          -1.038531 
 60            230           .3753693     -999           .3753693 
 70            230           1.365271     -999           1.365271 
 80            230           1.954355     -999           1.954355 
 90            230           2.150184     -999           2.150184 
 100           230           1.954358     -999           1.954358 
 110           230           1.365271     -999           1.365271 
 120           230           .3753674     -999           .3753674 
 130           230          -1.038531     -999          -1.038531 
 140           230          -2.937901     -999          -2.937901 
 150           230          -5.477649     -999          -5.477649 
 160           230          -9.071285     -999          -9.071285 
 170           230          -15.15347     -999          -15.15347 
 180           230          -136.437      -999          -136.437 
 0             240          -999          -999          -999 
 10            240          -15.15348     -999          -15.15348 
 20            240          -9.071291     -999          -9.071291 
 30            240          -5.477647     -999          -5.477647 
 40            240          -2.937903     -999          -2.937903 
 50            240          -1.038531     -999          -1.038531 
 60            240           .3753693     -999           .3753693 
 70            240           1.365271     -999           1.365271 
 80            240           1.954355     -999           1.954355 
 90            240           2.150184     -999           2.150184 
 100           240           1.954358     -999           1.954358 
 110           240           1.365271     -999           1.365271 
 120           240           .3753674     -999           .3753674 
 130           240          -1.038531     -999          -1.038531 
 140           240          -2.937901     -999          -2.937901 
 150           240          -5.477649     -999          -5.477649 
 160           240          -9.071285     -999          -9.071285 
 170           240          -15.15347     -999          -15.15347 
 180           240          -136.437      -999          -136.437 
 0             250          -999          -999          -999 
 10            250          -15.15348     -999          -15.15348 
 20            250          -9.071291     -999          -9.071291 
 30            250          -5.477647     -999          -5.477647 
 40            250          -2.937903     -999          -2.937903 
 50            250          -1.038531     -999          -1.038531 
 60            250           .3753693     -999           .3753693 
 70            250           1.365271     -999           1.365271 
 80            250           1.954355     -999           1.954355 
 90            250           2.150184     -999           2.150184 
 100           250           1.954358     -999           1.954358 
 110           250           1.365271     -999           1.365271 
 120           250           .3753674     -999           .3753674 
 130           250          -1.038531     -999          -1.038531 
 140           250          -2.937901     -999          -2.937901 
 150           250          -5.477649     -999          -5.477649 
 160           250          -9.071285     -999          -9.071285 
 170           250          -15.15347     -999          -15.15347 
 180           250          -136.437      -999          -136.437 
 0             260          -999          -999          -999 
 10            260          -15.15348     -999          -15.15348 
 20            260          -9.071291     -999          -9.071291 
 30            260          -5.477647     -999          -5.477647 
 40            260          -2.937903     -999          -2.937903 
 50            260          -1.038531     -999          -1.038531 
 60            260           .3753693     -999           .3753693 
 70            260           1.365271     -999           1.365271 
 80            260           1.954355     -999           1.954355 
 90            260           2.150184     -999           2.150184 
 100           260           1.954358     -999           1.954358 
 110           260           1.365271     -999           1.365271 
 120           260           .3753674     -999           .3753674 
 130           260          -1.038531     -999          -1.038531 
 140           260          -2.937901     -999          -2.937901 
 150           260          -5.477649     -999          -5.477649 
 160           260          -9.071285     -999          -9.071285 
 170           260          -15.15347     -999          -15.15347 
 180           260          -136.437      -999          -136.437 
 0             270          -999          -999          -999 
 10            270          -15.15348     -999          -15.15348 
 20            270          -9.071291     -999          -9.071291 
 30            270          -5.477647     -999          -5.477647 
 40            270          -2.937903     -999          -2.937903 
 50            270          -1.038531     -999          -1.038531 
 60            270           .3753693     -999           .3753693 
 70            270           1.365271     -999           1.365271 
 80            270           1.954355     -999           1.954355 
 90            270           2.150184     -999           2.150184 
 100           270           1.954358     -999           1.954358 
 110           270           1.365271     -999           1.365271 
 120           270           .3753674     -999           .3753674 
 130           270          -1.038531     -999          -1.038531 
 140           270          -2.937901     -999          -2.937901 
 150           270          -5.477649     -999          -5.477649 
 160           270          -9.071285     -999          -9.071285 
 170           270          -15.15347     -999          -15.15347 
 180           270          -136.437      -999          -136.437 
 0             280          -999          -999          -999 
 10            280          -15.15348     -999          -15.15348 
 20            280          -9.071291     -999          -9.071291 
 30            280          -5.477647     -999          -5.477647 
 40            280          -2.937903     -999          -2.937903 
 50            280          -1.038531     -999          -1.038531 
 60            280           .3753693     -999           .3753693 
 70            280           1.365271     -999           1.365271 
 80            280           1.954355     -999           1.954355 
 90            280           2.150184     -999           2.150184 
 100           280           1.954358     -999           1.954358 
 110           280           1.365271     -999           1.365271 
 120           280           .3753674     -999           .3753674 
 130           280          -1.038531     -999          -1.038531 
 140           280          -2.937901     -999          -2.937901 
 150           280          -5.477649     -999          -5.477649 
 160           280          -9.071285     -999          -9.071285 
 170           280          -15.15347     -999          -15.15347 
 180           280          -136.437      -999          -136.437 
 0             290          -999          -999          -999 
 10            290          -15.15348     -999          -15.15348 
 20            290          -9.071291     -999          -9.071291 
 30            290          -5.477647     -999          -5.477647 
 40            290          -2.937903     -999          -2.937903 
 50            290          -1.038531     -999          -1.038531 
 60            290           .3753693     -999           .3753693 
 70            290           1.365271     -999           1.365271 
 80            290           1.954355     -999           1.954355 
 90            290           2.150184     -999           2.150184 
 100           290           1.954358     -999           1.954358 
 110           290           1.365271     -999           1.365271 
 120           290           .3753674     -999           .3753674 
 130           290          -1.038531     -999          -1.038531 
 140           290          -2.937901     -999          -2.937901 
 150           290          -5.477649     -999          -5.477649 
 160           290          -9.071285     -999          -9.071285 
 170           290          -15.15347     -999          -15.15347 
 180           290          -136.437      -999          -136.437 
 0             300          -999          -999          -999 
 10            300          -15.15348     -999          -15.15348 
 20            300          -9.071291     -999          -9.071291 
 30            300          -5.477647     -999          -5.477647 
 40            300          -2.937903     -999          -2.937903 
 50            300          -1.038531     -999          -1.038531 
 60            300           .3753693     -999           .3753693 
 70            300           1.365271     -999           1.365271 
 80            300           1.954355     -999           1.954355 
 90            300           2.150184     -999           2.150184 
 100           300           1.954358     -999           1.954358 
 110           300           1.365271     -999           1.365271 
 120           300           .3753674     -999           .3753674 
 130           300          -1.038531     -999          -1.038531 
 140           300          -2.937901     -999          -2.937901 
 150           300          -5.477649     -999          -5.477649 
 160           300          -9.071285     -999          -9.071285 
 170           300          -15.15347     -999          -15.15347 
 180           300          -136.437      -999          -136.437 
 0             310          -999          -999          -999 
 10            310          -15.15348     -999          -15.15348 
 20            310          -9.071291     -999          -9.071291 
 30            310          -5.477647     -999          -5.477647 
 40            310          -2.937903     -999          -2.937903 
 50            310          -1.038531     -999          -1.038531 
 60            310           .3753693     -999           .3753693 
 70            310           1.365271     -999           1.365271 
 80            310           1.954355     -999           1.954355 
 90            310           2.150184     -999           2.150184 
 100           310           1.954358     -999           1.954358 
 110           310           1.365271     -999           1.365271 
 120           310           .3753674     -999           .3753674 
 130           310          -1.038531     -999          -1.038531 
 140           310          -2.937901     -999          -2.937901 
 150           310          -5.477649     -999          -5.477649 
 160           310          -9.071285     -999          -9.071285 
 170           310          -15.15347     -999          -15.15347 
 180           310          -136.437      -999          -136.437 
 0             320          -999          -999          -999 
 10            320          -15.15348     -999          -15.15348 
 20            320          -9.071291     -999          -9.071291 
 30            320          -5.477647     -999          -5.477647 
 40            320          -2.937903     -999          -2.937903 
 50            320          -1.038531     -999          -1.038531 
 60            320           .3753693     -999           .3753693 
 70            320           1.365271     -999           1.365271 
 80            320           1.954355     -999           1.954355 
 90            320           2.150184     -999           2.150184 
 100           320           1.954358     -999           1.954358 
 110           320           1.365271     -999           1.365271 
 120           320           .3753674     -999           .3753674 
 130           320          -1.038531     -999          -1.038531 
 140           320          -2.937901     -999          -2.937901 
 150           320          -5.477649     -999          -5.477649 
 160           320          -9.071285     -999          -9.071285 
 170           320          -15.15347     -999          -15.15347 
 180           320          -136.437      -999          -136.437 
 0             330          -999          -999          -999 
 10            330          -15.15348     -999          -15.15348 
 20            330          -9.071291     -999          -9.071291 
 30            330          -5.477647     -999          -5.477647 
 40            330          -2.937903     -999          -2.937903 
 50            330          -1.038531     -999          -1.038531 
 60            330           .3753693     -999           .3753693 
 70            330           1.365271     -999           1.365271 
 80            330           1.954355     -999           1.954355 
 90            330           2.150184     -999           2.150184 
 100           330           1.954358     -999           1.954358 
 110           330           1.365271     -999           1.365271 
 120           330           .3753674     -999           .3753674 
 130           330          -1.038531     -999          -1.038531 
 140           330          -2.937901     -999          -2.937901 
 150           330          -5.477649     -999          -5.477649 
 160           330          -9.071285     -999          -9.071285 
 170           330          -15.15347     -999          -15.15347 
 180           330          -136.437      -999          -136.437 
 0             340          -999          -999          -999 
 10            340          -15.15348     -999          -15.15348 
 20            340          -9.071291     -999          -9.071291 
 30            340          -5.477647     -999          -5.477647 
 40            340          -2.937903     -999          -2.937903 
 50            340          -1.038531     -999          -1.038531 
 60            340           .3753693     -999           .3753693 
 70            340           1.365271     -999           1.365271 
 80            340           1.954355     -999           1.954355 
 90            340           2.150184     -999           2.150184 
 100           340           1.954358     -999           1.954358 
 110           340           1.365271     -999           1.365271 
 120           340           .3753674     -999           .3753674 
 130           340          -1.038531     -999          -1.038531 
 140           340          -2.937901     -999          -2.937901 
 150           340          -5.477649     -999          -5.477649 
 160           340          -9.071285     -999          -9.071285 
 170           340          -15.15347     -999          -15.15347 
 180           340          -136.437      -999          -136.437 
 0             350          -999          -999          -999 
 10            350          -15.15348     -999          -15.15348 
 20            350          -9.071291     -999          -9.071291 
 30            350          -5.477647     -999          -5.477647 
 40            350          -2.937903     -999          -2.937903 
 50            350          -1.038531     -999          -1.038531 
 60            350           .3753693     -999           .3753693 
 70            350           1.365271     -999           1.365271 
 80            350           1.954355     -999           1.954355 
 90            350           2.150184     -999           2.150184 
 100           350           1.954358     -999           1.954358 
 110           350           1.365271     -999           1.365271 
 120           350           .3753674     -999           .3753674 
 130           350          -1.038531     -999          -1.038531 
 140           350          -2.937901     -999          -2.937901 
 150           350          -5.477649     -999          -5.477649 
 160           350          -9.071285     -999          -9.071285 
 170           350          -15.15347     -999          -15.15347 
 180           350          -136.437      -999          -136.437 
 0             360          -999          -999          -999 
 10            360          -15.15348     -999          -15.15348 
 20            360          -9.071291     -999          -9.071291 
 30            360          -5.477647     -999          -5.477647 
 40            360          -2.937903     -999          -2.937903 
 50            360          -1.038531     -999          -1.038531 
 60            360           .3753693     -999           .3753693 
 70            360           1.365271     -999           1.365271 
 80            360           1.954355     -999           1.954355 
 90            360           2.150184     -999           2.150184 
 100           360           1.954358     -999           1.954358 
 110           360           1.365271     -999           1.365271 
 120           360           .3753674     -999           .3753674 
 130           360          -1.038531     -999          -1.038531 
 140           360          -2.937901     -999          -2.937901 
 150           360          -5.477649     -999          -5.477649 
 160           360          -9.071285     -999          -9.071285 
 170           360          -15.15347     -999          -15.15347 
 180           360          -136.437      -999          -136.437 
