                   ****************************************
                     MINI-NUMERICAL ELECTROMAGNETICS CODE
                                   MININEC
                   ****************************************

FREQUENCY (MHZ): 28.074
    WAVE LENGTH =  10.67892  METERS

ENVIRONMENT (+1 FOR FREE SPACE, -1 FOR GROUND PLANE): -1
 NUMBER OF MEDIA (0 FOR PERFECTLY CONDUCTING GROUND):  1
 RELATIVE DIELECTRIC CONSTANT, CONDUCTIVITY:  13 , .005

NO. OF GEO-OBJECTS: 1

WIRE NO. 1
            COORDINATES                                 END         NO. OF
   X             Y             Z          RADIUS     CONNECTION     SEGMENTS
 0             0             7.33                       0
 0             0             12.7          .01          0             10

                  **** ANTENNA GEOMETRY ****

WIRE NO.  1 COORDINATES                                 CONNECTION PULSE
X             Y             Z             RADIUS        END1 END2  NO.
 0             0             7.867         .01           0    1   1
 0             0             8.404         .01           1    1   2
 0             0             8.941         .01           1    1   3
 0             0             9.478         .01           1    1   4
 0             0             10.015        .01           1    1   5
 0             0             10.552        .01           1    1   6
 0             0             11.089        .01           1    1   7
 0             0             11.626        .01           1    1   8
 0             0             12.163        .01           1    0   9

NO. OF SOURCES :  1
PULSE NO., VOLTAGE MAGNITUDE, PHASE (DEGREES):  5 , 1 , 0
NUMBER OF LOADS 0

********************    SOURCE DATA     ********************
PULSE  5      VOLTAGE = ( 1 , 0 J)
              CURRENT = ( 9.545566E-03 , -5.103542E-03 J)
              IMPEDANCE = ( 81.47186 ,  43.55897 J)
              POWER =  4.772783E-03  WATTS

********************    CURRENT DATA    ********************

WIRE NO.  1 :
PULSE         REAL          IMAGINARY     MAGNITUDE     PHASE
 NO.          (AMPS)        (AMPS)        (AMPS)        (DEGREES)
E              0             0             0             0
 1             3.222776E-03 -2.285168E-03  3.950731E-03 -35.33924 
 2             5.821888E-03 -3.957107E-03  7.039395E-03 -34.20374 
 3             7.829412E-03 -5.054721E-03  9.319329E-03 -32.84656 
 4             9.104856E-03 -5.486112E-03  1.062995E-02 -31.07098 
 5             9.545566E-03 -5.103542E-03  1.082423E-02 -28.13121 
 6             9.114124E-03 -5.485610E-03  1.063763E-02 -31.0429  
 7             7.845385E-03 -5.053776E-03  9.332241E-03 -32.78849 
 8             5.839765E-03 -3.955894E-03  7.053506E-03 -34.11396 
 9             3.236048E-03 -2.284097E-03  3.960947E-03 -35.21557 
E              0             0             0             0

********************     FAR FIELD      ********************

ZENITH ANGLE : INITIAL,INCREMENT,NUMBER: 0 , 10 , 10
AZIMUTH ANGLE: INITIAL,INCREMENT,NUMBER: 0 , 10 , 37

********************    PATTERN DATA    ********************
ZENITH        AZIMUTH       VERTICAL      HORIZONTAL    TOTAL
 ANGLE         ANGLE        PATTERN (DB)  PATTERN (DB)  PATTERN (DB)
 0             0            -999          -999          -999     
 10            0            -12.01022     -999          -12.01022
 20            0            -7.332663     -999          -7.332663
 30            0            -7.703974     -999          -7.703974
 40            0            -7.975005     -999          -7.975005
 50            0             .1698        -999           .1698   
 60            0             2.730651     -999           2.730651
 70            0             1.155614     -999           1.155614
 80            0             2.563085     -999           2.563085
 90            0            -999          -999          -999     
 0             10           -999          -999          -999     
 10            10           -12.01022     -999          -12.01022
 20            10           -7.332663     -999          -7.332663
 30            10           -7.703974     -999          -7.703974
 40            10           -7.975005     -999          -7.975005
 50            10            .1698        -999           .1698   
 60            10            2.730651     -999           2.730651
 70            10            1.155614     -999           1.155614
 80            10            2.563085     -999           2.563085
 90            10           -999          -999          -999     
 0             20           -999          -999          -999     
 10            20           -12.01022     -999          -12.01022
 20            20           -7.332663     -999          -7.332663
 30            20           -7.703974     -999          -7.703974
 40            20           -7.975005     -999          -7.975005
 50            20            .1698        -999           .1698   
 60            20            2.730651     -999           2.730651
 70            20            1.155614     -999           1.155614
 80            20            2.563085     -999           2.563085
 90            20           -999          -999          -999     
 0             30           -999          -999          -999     
 10            30           -12.01022     -999          -12.01022
 20            30           -7.332663     -999          -7.332663
 30            30           -7.703974     -999          -7.703974
 40            30           -7.975005     -999          -7.975005
 50            30            .1698        -999           .1698   
 60            30            2.730651     -999           2.730651
 70            30            1.155614     -999           1.155614
 80            30            2.563085     -999           2.563085
 90            30           -999          -999          -999     
 0             40           -999          -999          -999     
 10            40           -12.01022     -999          -12.01022
 20            40           -7.332663     -999          -7.332663
 30            40           -7.703974     -999          -7.703974
 40            40           -7.975005     -999          -7.975005
 50            40            .1698        -999           .1698   
 60            40            2.730651     -999           2.730651
 70            40            1.155614     -999           1.155614
 80            40            2.563085     -999           2.563085
 90            40           -999          -999          -999     
 0             50           -999          -999          -999     
 10            50           -12.01022     -999          -12.01022
 20            50           -7.332663     -999          -7.332663
 30            50           -7.703974     -999          -7.703974
 40            50           -7.975005     -999          -7.975005
 50            50            .1698        -999           .1698   
 60            50            2.730651     -999           2.730651
 70            50            1.155614     -999           1.155614
 80            50            2.563085     -999           2.563085
 90            50           -999          -999          -999     
 0             60           -999          -999          -999     
 10            60           -12.01022     -999          -12.01022
 20            60           -7.332663     -999          -7.332663
 30            60           -7.703974     -999          -7.703974
 40            60           -7.975005     -999          -7.975005
 50            60            .1698        -999           .1698   
 60            60            2.730651     -999           2.730651
 70            60            1.155614     -999           1.155614
 80            60            2.563085     -999           2.563085
 90            60           -999          -999          -999     
 0             70           -999          -999          -999     
 10            70           -12.01022     -999          -12.01022
 20            70           -7.332663     -999          -7.332663
 30            70           -7.703974     -999          -7.703974
 40            70           -7.975005     -999          -7.975005
 50            70            .1698        -999           .1698   
 60            70            2.730651     -999           2.730651
 70            70            1.155614     -999           1.155614
 80            70            2.563085     -999           2.563085
 90            70           -999          -999          -999     
 0             80           -999          -999          -999     
 10            80           -12.01022     -999          -12.01022
 20            80           -7.332663     -999          -7.332663
 30            80           -7.703974     -999          -7.703974
 40            80           -7.975005     -999          -7.975005
 50            80            .1698        -999           .1698   
 60            80            2.730651     -999           2.730651
 70            80            1.155614     -999           1.155614
 80            80            2.563085     -999           2.563085
 90            80           -999          -999          -999     
 0             90           -999          -999          -999     
 10            90           -12.01022     -999          -12.01022
 20            90           -7.332663     -999          -7.332663
 30            90           -7.703974     -999          -7.703974
 40            90           -7.975005     -999          -7.975005
 50            90            .1698        -999           .1698   
 60            90            2.730651     -999           2.730651
 70            90            1.155614     -999           1.155614
 80            90            2.563085     -999           2.563085
 90            90           -999          -999          -999     
 0             100          -999          -999          -999     
 10            100          -12.01022     -999          -12.01022
 20            100          -7.332663     -999          -7.332663
 30            100          -7.703974     -999          -7.703974
 40            100          -7.975005     -999          -7.975005
 50            100           .1698        -999           .1698   
 60            100           2.730651     -999           2.730651
 70            100           1.155614     -999           1.155614
 80            100           2.563085     -999           2.563085
 90            100          -999          -999          -999     
 0             110          -999          -999          -999     
 10            110          -12.01022     -999          -12.01022
 20            110          -7.332663     -999          -7.332663
 30            110          -7.703974     -999          -7.703974
 40            110          -7.975005     -999          -7.975005
 50            110           .1698        -999           .1698   
 60            110           2.730651     -999           2.730651
 70            110           1.155614     -999           1.155614
 80            110           2.563085     -999           2.563085
 90            110          -999          -999          -999     
 0             120          -999          -999          -999     
 10            120          -12.01022     -999          -12.01022
 20            120          -7.332663     -999          -7.332663
 30            120          -7.703974     -999          -7.703974
 40            120          -7.975005     -999          -7.975005
 50            120           .1698        -999           .1698   
 60            120           2.730651     -999           2.730651
 70            120           1.155614     -999           1.155614
 80            120           2.563085     -999           2.563085
 90            120          -999          -999          -999     
 0             130          -999          -999          -999     
 10            130          -12.01022     -999          -12.01022
 20            130          -7.332663     -999          -7.332663
 30            130          -7.703974     -999          -7.703974
 40            130          -7.975005     -999          -7.975005
 50            130           .1698        -999           .1698   
 60            130           2.730651     -999           2.730651
 70            130           1.155614     -999           1.155614
 80            130           2.563085     -999           2.563085
 90            130          -999          -999          -999     
 0             140          -999          -999          -999     
 10            140          -12.01022     -999          -12.01022
 20            140          -7.332663     -999          -7.332663
 30            140          -7.703974     -999          -7.703974
 40            140          -7.975005     -999          -7.975005
 50            140           .1698        -999           .1698   
 60            140           2.730651     -999           2.730651
 70            140           1.155614     -999           1.155614
 80            140           2.563085     -999           2.563085
 90            140          -999          -999          -999     
 0             150          -999          -999          -999     
 10            150          -12.01022     -999          -12.01022
 20            150          -7.332663     -999          -7.332663
 30            150          -7.703974     -999          -7.703974
 40            150          -7.975005     -999          -7.975005
 50            150           .1698        -999           .1698   
 60            150           2.730651     -999           2.730651
 70            150           1.155614     -999           1.155614
 80            150           2.563085     -999           2.563085
 90            150          -999          -999          -999     
 0             160          -999          -999          -999     
 10            160          -12.01022     -999          -12.01022
 20            160          -7.332663     -999          -7.332663
 30            160          -7.703974     -999          -7.703974
 40            160          -7.975005     -999          -7.975005
 50            160           .1698        -999           .1698   
 60            160           2.730651     -999           2.730651
 70            160           1.155614     -999           1.155614
 80            160           2.563085     -999           2.563085
 90            160          -999          -999          -999     
 0             170          -999          -999          -999     
 10            170          -12.01022     -999          -12.01022
 20            170          -7.332663     -999          -7.332663
 30            170          -7.703974     -999          -7.703974
 40            170          -7.975005     -999          -7.975005
 50            170           .1698        -999           .1698   
 60            170           2.730651     -999           2.730651
 70            170           1.155614     -999           1.155614
 80            170           2.563085     -999           2.563085
 90            170          -999          -999          -999     
 0             180          -999          -999          -999     
 10            180          -12.01022     -999          -12.01022
 20            180          -7.332663     -999          -7.332663
 30            180          -7.703974     -999          -7.703974
 40            180          -7.975005     -999          -7.975005
 50            180           .1698        -999           .1698   
 60            180           2.730651     -999           2.730651
 70            180           1.155614     -999           1.155614
 80            180           2.563085     -999           2.563085
 90            180          -999          -999          -999     
 0             190          -999          -999          -999     
 10            190          -12.01022     -999          -12.01022
 20            190          -7.332663     -999          -7.332663
 30            190          -7.703974     -999          -7.703974
 40            190          -7.975005     -999          -7.975005
 50            190           .1698        -999           .1698   
 60            190           2.730651     -999           2.730651
 70            190           1.155614     -999           1.155614
 80            190           2.563085     -999           2.563085
 90            190          -999          -999          -999     
 0             200          -999          -999          -999     
 10            200          -12.01022     -999          -12.01022
 20            200          -7.332663     -999          -7.332663
 30            200          -7.703974     -999          -7.703974
 40            200          -7.975005     -999          -7.975005
 50            200           .1698        -999           .1698   
 60            200           2.730651     -999           2.730651
 70            200           1.155614     -999           1.155614
 80            200           2.563085     -999           2.563085
 90            200          -999          -999          -999     
 0             210          -999          -999          -999     
 10            210          -12.01022     -999          -12.01022
 20            210          -7.332663     -999          -7.332663
 30            210          -7.703974     -999          -7.703974
 40            210          -7.975005     -999          -7.975005
 50            210           .1698        -999           .1698   
 60            210           2.730651     -999           2.730651
 70            210           1.155614     -999           1.155614
 80            210           2.563085     -999           2.563085
 90            210          -999          -999          -999     
 0             220          -999          -999          -999     
 10            220          -12.01022     -999          -12.01022
 20            220          -7.332663     -999          -7.332663
 30            220          -7.703974     -999          -7.703974
 40            220          -7.975005     -999          -7.975005
 50            220           .1698        -999           .1698   
 60            220           2.730651     -999           2.730651
 70            220           1.155614     -999           1.155614
 80            220           2.563085     -999           2.563085
 90            220          -999          -999          -999     
 0             230          -999          -999          -999     
 10            230          -12.01022     -999          -12.01022
 20            230          -7.332663     -999          -7.332663
 30            230          -7.703974     -999          -7.703974
 40            230          -7.975005     -999          -7.975005
 50            230           .1698        -999           .1698   
 60            230           2.730651     -999           2.730651
 70            230           1.155614     -999           1.155614
 80            230           2.563085     -999           2.563085
 90            230          -999          -999          -999     
 0             240          -999          -999          -999     
 10            240          -12.01022     -999          -12.01022
 20            240          -7.332663     -999          -7.332663
 30            240          -7.703974     -999          -7.703974
 40            240          -7.975005     -999          -7.975005
 50            240           .1698        -999           .1698   
 60            240           2.730651     -999           2.730651
 70            240           1.155614     -999           1.155614
 80            240           2.563085     -999           2.563085
 90            240          -999          -999          -999     
 0             250          -999          -999          -999     
 10            250          -12.01022     -999          -12.01022
 20            250          -7.332663     -999          -7.332663
 30            250          -7.703974     -999          -7.703974
 40            250          -7.975005     -999          -7.975005
 50            250           .1698        -999           .1698   
 60            250           2.730651     -999           2.730651
 70            250           1.155614     -999           1.155614
 80            250           2.563085     -999           2.563085
 90            250          -999          -999          -999     
 0             260          -999          -999          -999     
 10            260          -12.01022     -999          -12.01022
 20            260          -7.332663     -999          -7.332663
 30            260          -7.703974     -999          -7.703974
 40            260          -7.975005     -999          -7.975005
 50            260           .1698        -999           .1698   
 60            260           2.730651     -999           2.730651
 70            260           1.155614     -999           1.155614
 80            260           2.563085     -999           2.563085
 90            260          -999          -999          -999     
 0             270          -999          -999          -999     
 10            270          -12.01022     -999          -12.01022
 20            270          -7.332663     -999          -7.332663
 30            270          -7.703974     -999          -7.703974
 40            270          -7.975005     -999          -7.975005
 50            270           .1698        -999           .1698   
 60            270           2.730651     -999           2.730651
 70            270           1.155614     -999           1.155614
 80            270           2.563085     -999           2.563085
 90            270          -999          -999          -999     
 0             280          -999          -999          -999     
 10            280          -12.01022     -999          -12.01022
 20            280          -7.332663     -999          -7.332663
 30            280          -7.703974     -999          -7.703974
 40            280          -7.975005     -999          -7.975005
 50            280           .1698        -999           .1698   
 60            280           2.730651     -999           2.730651
 70            280           1.155614     -999           1.155614
 80            280           2.563085     -999           2.563085
 90            280          -999          -999          -999     
 0             290          -999          -999          -999     
 10            290          -12.01022     -999          -12.01022
 20            290          -7.332663     -999          -7.332663
 30            290          -7.703974     -999          -7.703974
 40            290          -7.975005     -999          -7.975005
 50            290           .1698        -999           .1698   
 60            290           2.730651     -999           2.730651
 70            290           1.155614     -999           1.155614
 80            290           2.563085     -999           2.563085
 90            290          -999          -999          -999     
 0             300          -999          -999          -999     
 10            300          -12.01022     -999          -12.01022
 20            300          -7.332663     -999          -7.332663
 30            300          -7.703974     -999          -7.703974
 40            300          -7.975005     -999          -7.975005
 50            300           .1698        -999           .1698   
 60            300           2.730651     -999           2.730651
 70            300           1.155614     -999           1.155614
 80            300           2.563085     -999           2.563085
 90            300          -999          -999          -999     
 0             310          -999          -999          -999     
 10            310          -12.01022     -999          -12.01022
 20            310          -7.332663     -999          -7.332663
 30            310          -7.703974     -999          -7.703974
 40            310          -7.975005     -999          -7.975005
 50            310           .1698        -999           .1698   
 60            310           2.730651     -999           2.730651
 70            310           1.155614     -999           1.155614
 80            310           2.563085     -999           2.563085
 90            310          -999          -999          -999     
 0             320          -999          -999          -999     
 10            320          -12.01022     -999          -12.01022
 20            320          -7.332663     -999          -7.332663
 30            320          -7.703974     -999          -7.703974
 40            320          -7.975005     -999          -7.975005
 50            320           .1698        -999           .1698   
 60            320           2.730651     -999           2.730651
 70            320           1.155614     -999           1.155614
 80            320           2.563085     -999           2.563085
 90            320          -999          -999          -999     
 0             330          -999          -999          -999     
 10            330          -12.01022     -999          -12.01022
 20            330          -7.332663     -999          -7.332663
 30            330          -7.703974     -999          -7.703974
 40            330          -7.975005     -999          -7.975005
 50            330           .1698        -999           .1698   
 60            330           2.730651     -999           2.730651
 70            330           1.155614     -999           1.155614
 80            330           2.563085     -999           2.563085
 90            330          -999          -999          -999     
 0             340          -999          -999          -999     
 10            340          -12.01022     -999          -12.01022
 20            340          -7.332663     -999          -7.332663
 30            340          -7.703974     -999          -7.703974
 40            340          -7.975005     -999          -7.975005
 50            340           .1698        -999           .1698   
 60            340           2.730651     -999           2.730651
 70            340           1.155614     -999           1.155614
 80            340           2.563085     -999           2.563085
 90            340          -999          -999          -999     
 0             350          -999          -999          -999     
 10            350          -12.01022     -999          -12.01022
 20            350          -7.332663     -999          -7.332663
 30            350          -7.703974     -999          -7.703974
 40            350          -7.975005     -999          -7.975005
 50            350           .1698        -999           .1698   
 60            350           2.730651     -999           2.730651
 70            350           1.155614     -999           1.155614
 80            350           2.563085     -999           2.563085
 90            350          -999          -999          -999     
 0             360          -999          -999          -999     
 10            360          -12.01022     -999          -12.01022
 20            360          -7.332663     -999          -7.332663
 30            360          -7.703974     -999          -7.703974
 40            360          -7.975005     -999          -7.975005
 50            360           .1698        -999           .1698   
 60            360           2.730651     -999           2.730651
 70            360           1.155614     -999           1.155614
 80            360           2.563085     -999           2.563085
 90            360          -999          -999          -999     