                   ****************************************
                     MINI-NUMERICAL ELECTROMAGNETICS CODE
                                   MININEC
                   ****************************************

FREQUENCY (MHZ): 28.074
    WAVE LENGTH =  10.67892  METERS

ENVIRONMENT (+1 FOR FREE SPACE, -1 FOR GROUND PLANE): -1
 NUMBER OF MEDIA (0 FOR PERFECTLY CONDUCTING GROUND):  0

NO. OF WIRES: 1

WIRE NO. 1
            COORDINATES                                 END         NO. OF
   X             Y             Z          RADIUS     CONNECTION     SEGMENTS
 0             0             7.33                       0
 0             0             12.7          .001         0             10

                  **** ANTENNA GEOMETRY ****

WIRE NO.  1  COORDINATES                                CONNECTION PULSE
X             Y             Z             RADIUS        END1 END2  NO.
 0             0             7.867         .001          0    1   1
 0             0             8.404         .001          1    1   2
 0             0             8.941         .001          1    1   3
 0             0             9.478         .001          1    1   4
 0             0             10.015        .001          1    1   5
 0             0             10.552        .001          1    1   6
 0             0             11.089        .001          1    1   7
 0             0             11.626        .001          1    1   8
 0             0             12.163        .001          1    0   9

NO. OF SOURCES :  1
PULSE NO., VOLTAGE MAGNITUDE, PHASE (DEGREES):  5 , 1 , 0
NUMBER OF LOADS 0

********************    SOURCE DATA     ********************
PULSE  5      VOLTAGE = ( 1 , 0 J)
              CURRENT = ( 9.243550E-03 , -5.718029E-03 J)
              IMPEDANCE = (  78.24295 ,  48.40084 J)
              POWER =  4.621775E-03  WATTS

********************    CURRENT DATA    ********************

WIRE NO.  1 :
PULSE         REAL          IMAGINARY     MAGNITUDE     PHASE
 NO.          (AMPS)        (AMPS)        (AMPS)        (DEGREES)
E              0             0             0             0
 1             3.017372E-03 -2.215934E-03  3.743649E-03 -36.29329 
 2             5.561500E-03 -3.971496E-03  6.833964E-03 -35.53084 
 3             7.543704E-03 -5.209381E-03  9.167614E-03 -34.62742 
 4             8.807365E-03 -5.823398E-03  1.055849E-02 -33.47254 
 5             9.243550E-03 -5.718029E-03  1.086918E-02 -31.74081 
 6             8.813398E-03 -5.823298E-03  1.056347E-02 -33.45404 
 7             7.554057E-03 -5.209158E-03  9.176008E-03 -34.58954 
 8             5.572981E-03 -3.971152E-03  6.843112E-03 -35.47263 
 9             3.025713E-03 -2.215583E-03  3.750167E-03 -36.21353 
E              0             0             0             0

********************     FAR FIELD      ********************

ZENITH ANGLE : INITIAL,INCREMENT,NUMBER:  0 , 10 , 10
AZIMUTH ANGLE: INITIAL,INCREMENT,NUMBER:  0 , 10 , 37

********************    PATTERN DATA    ********************
ZENITH        AZIMUTH       VERTICAL      HORIZONTAL    TOTAL
 ANGLE         ANGLE        PATTERN (DB)  PATTERN (DB)  PATTERN (DB)
 0             0            -999          -999          -999     
 10            0            -10.09772     -999          -10.09772
 20            0            -5.657324     -999          -5.657324
 30            0            -7.769503     -999          -7.769503
 40            0            -10.9748      -999          -10.9748 
 50            0             3.077693     -999           3.077693
 60            0             6.275227     -999           6.275227
 70            0             .099572      -999           .099572 
 80            0             2.341879     -999           2.341879
 90            0             8.207203     -999           8.207203
 0             10           -999          -999          -999     
 10            10           -10.09772     -999          -10.09772
 20            10           -5.657324     -999          -5.657324
 30            10           -7.769503     -999          -7.769503
 40            10           -10.9748      -999          -10.9748 
 50            10            3.077693     -999           3.077693
 60            10            6.275227     -999           6.275227
 70            10            .099572      -999           .099572 
 80            10            2.341879     -999           2.341879
 90            10            8.207203     -999           8.207203
 0             20           -999          -999          -999     
 10            20           -10.09772     -999          -10.09772
 20            20           -5.657324     -999          -5.657324
 30            20           -7.769503     -999          -7.769503
 40            20           -10.9748      -999          -10.9748 
 50            20            3.077693     -999           3.077693
 60            20            6.275227     -999           6.275227
 70            20            .099572      -999           .099572 
 80            20            2.341879     -999           2.341879
 90            20            8.207203     -999           8.207203
 0             30           -999          -999          -999     
 10            30           -10.09772     -999          -10.09772
 20            30           -5.657324     -999          -5.657324
 30            30           -7.769503     -999          -7.769503
 40            30           -10.9748      -999          -10.9748 
 50            30            3.077693     -999           3.077693
 60            30            6.275227     -999           6.275227
 70            30            .099572      -999           .099572 
 80            30            2.341879     -999           2.341879
 90            30            8.207203     -999           8.207203
 0             40           -999          -999          -999     
 10            40           -10.09772     -999          -10.09772
 20            40           -5.657324     -999          -5.657324
 30            40           -7.769503     -999          -7.769503
 40            40           -10.9748      -999          -10.9748 
 50            40            3.077693     -999           3.077693
 60            40            6.275227     -999           6.275227
 70            40            .099572      -999           .099572 
 80            40            2.341879     -999           2.341879
 90            40            8.207203     -999           8.207203
 0             50           -999          -999          -999     
 10            50           -10.09772     -999          -10.09772
 20            50           -5.657324     -999          -5.657324
 30            50           -7.769503     -999          -7.769503
 40            50           -10.9748      -999          -10.9748 
 50            50            3.077693     -999           3.077693
 60            50            6.275227     -999           6.275227
 70            50            .099572      -999           .099572 
 80            50            2.341879     -999           2.341879
 90            50            8.207203     -999           8.207203
 0             60           -999          -999          -999     
 10            60           -10.09772     -999          -10.09772
 20            60           -5.657324     -999          -5.657324
 30            60           -7.769503     -999          -7.769503
 40            60           -10.9748      -999          -10.9748 
 50            60            3.077693     -999           3.077693
 60            60            6.275227     -999           6.275227
 70            60            .099572      -999           .099572 
 80            60            2.341879     -999           2.341879
 90            60            8.207203     -999           8.207203
 0             70           -999          -999          -999     
 10            70           -10.09772     -999          -10.09772
 20            70           -5.657324     -999          -5.657324
 30            70           -7.769503     -999          -7.769503
 40            70           -10.9748      -999          -10.9748 
 50            70            3.077693     -999           3.077693
 60            70            6.275227     -999           6.275227
 70            70            .099572      -999           .099572 
 80            70            2.341879     -999           2.341879
 90            70            8.207203     -999           8.207203
 0             80           -999          -999          -999     
 10            80           -10.09772     -999          -10.09772
 20            80           -5.657324     -999          -5.657324
 30            80           -7.769503     -999          -7.769503
 40            80           -10.9748      -999          -10.9748 
 50            80            3.077693     -999           3.077693
 60            80            6.275227     -999           6.275227
 70            80            .099572      -999           .099572 
 80            80            2.341879     -999           2.341879
 90            80            8.207203     -999           8.207203
 0             90           -999          -999          -999     
 10            90           -10.09772     -999          -10.09772
 20            90           -5.657324     -999          -5.657324
 30            90           -7.769503     -999          -7.769503
 40            90           -10.9748      -999          -10.9748 
 50            90            3.077693     -999           3.077693
 60            90            6.275227     -999           6.275227
 70            90            .099572      -999           .099572 
 80            90            2.341879     -999           2.341879
 90            90            8.207203     -999           8.207203
 0             100          -999          -999          -999     
 10            100          -10.09772     -999          -10.09772
 20            100          -5.657324     -999          -5.657324
 30            100          -7.769503     -999          -7.769503
 40            100          -10.9748      -999          -10.9748 
 50            100           3.077693     -999           3.077693
 60            100           6.275227     -999           6.275227
 70            100           .099572      -999           .099572 
 80            100           2.341879     -999           2.341879
 90            100           8.207203     -999           8.207203
 0             110          -999          -999          -999     
 10            110          -10.09772     -999          -10.09772
 20            110          -5.657324     -999          -5.657324
 30            110          -7.769503     -999          -7.769503
 40            110          -10.9748      -999          -10.9748 
 50            110           3.077693     -999           3.077693
 60            110           6.275227     -999           6.275227
 70            110           .099572      -999           .099572 
 80            110           2.341879     -999           2.341879
 90            110           8.207203     -999           8.207203
 0             120          -999          -999          -999     
 10            120          -10.09772     -999          -10.09772
 20            120          -5.657324     -999          -5.657324
 30            120          -7.769503     -999          -7.769503
 40            120          -10.9748      -999          -10.9748 
 50            120           3.077693     -999           3.077693
 60            120           6.275227     -999           6.275227
 70            120           .099572      -999           .099572 
 80            120           2.341879     -999           2.341879
 90            120           8.207203     -999           8.207203
 0             130          -999          -999          -999     
 10            130          -10.09772     -999          -10.09772
 20            130          -5.657324     -999          -5.657324
 30            130          -7.769503     -999          -7.769503
 40            130          -10.9748      -999          -10.9748 
 50            130           3.077693     -999           3.077693
 60            130           6.275227     -999           6.275227
 70            130           .099572      -999           .099572 
 80            130           2.341879     -999           2.341879
 90            130           8.207203     -999           8.207203
 0             140          -999          -999          -999     
 10            140          -10.09772     -999          -10.09772
 20            140          -5.657324     -999          -5.657324
 30            140          -7.769503     -999          -7.769503
 40            140          -10.9748      -999          -10.9748 
 50            140           3.077693     -999           3.077693
 60            140           6.275227     -999           6.275227
 70            140           .099572      -999           .099572 
 80            140           2.341879     -999           2.341879
 90            140           8.207203     -999           8.207203
 0             150          -999          -999          -999     
 10            150          -10.09772     -999          -10.09772
 20            150          -5.657324     -999          -5.657324
 30            150          -7.769503     -999          -7.769503
 40            150          -10.9748      -999          -10.9748 
 50            150           3.077693     -999           3.077693
 60            150           6.275227     -999           6.275227
 70            150           .099572      -999           .099572 
 80            150           2.341879     -999           2.341879
 90            150           8.207203     -999           8.207203
 0             160          -999          -999          -999     
 10            160          -10.09772     -999          -10.09772
 20            160          -5.657324     -999          -5.657324
 30            160          -7.769503     -999          -7.769503
 40            160          -10.9748      -999          -10.9748 
 50            160           3.077693     -999           3.077693
 60            160           6.275227     -999           6.275227
 70            160           .099572      -999           .099572 
 80            160           2.341879     -999           2.341879
 90            160           8.207203     -999           8.207203
 0             170          -999          -999          -999     
 10            170          -10.09772     -999          -10.09772
 20            170          -5.657324     -999          -5.657324
 30            170          -7.769503     -999          -7.769503
 40            170          -10.9748      -999          -10.9748 
 50            170           3.077693     -999           3.077693
 60            170           6.275227     -999           6.275227
 70            170           .099572      -999           .099572 
 80            170           2.341879     -999           2.341879
 90            170           8.207203     -999           8.207203
 0             180          -999          -999          -999     
 10            180          -10.09772     -999          -10.09772
 20            180          -5.657324     -999          -5.657324
 30            180          -7.769503     -999          -7.769503
 40            180          -10.9748      -999          -10.9748 
 50            180           3.077693     -999           3.077693
 60            180           6.275227     -999           6.275227
 70            180           .099572      -999           .099572 
 80            180           2.341879     -999           2.341879
 90            180           8.207203     -999           8.207203
 0             190          -999          -999          -999     
 10            190          -10.09772     -999          -10.09772
 20            190          -5.657324     -999          -5.657324
 30            190          -7.769503     -999          -7.769503
 40            190          -10.9748      -999          -10.9748 
 50            190           3.077693     -999           3.077693
 60            190           6.275227     -999           6.275227
 70            190           .099572      -999           .099572 
 80            190           2.341879     -999           2.341879
 90            190           8.207203     -999           8.207203
 0             200          -999          -999          -999     
 10            200          -10.09772     -999          -10.09772
 20            200          -5.657324     -999          -5.657324
 30            200          -7.769503     -999          -7.769503
 40            200          -10.9748      -999          -10.9748 
 50            200           3.077693     -999           3.077693
 60            200           6.275227     -999           6.275227
 70            200           .099572      -999           .099572 
 80            200           2.341879     -999           2.341879
 90            200           8.207203     -999           8.207203
 0             210          -999          -999          -999     
 10            210          -10.09772     -999          -10.09772
 20            210          -5.657324     -999          -5.657324
 30            210          -7.769503     -999          -7.769503
 40            210          -10.9748      -999          -10.9748 
 50            210           3.077693     -999           3.077693
 60            210           6.275227     -999           6.275227
 70            210           .099572      -999           .099572 
 80            210           2.341879     -999           2.341879
 90            210           8.207203     -999           8.207203
 0             220          -999          -999          -999     
 10            220          -10.09772     -999          -10.09772
 20            220          -5.657324     -999          -5.657324
 30            220          -7.769503     -999          -7.769503
 40            220          -10.9748      -999          -10.9748 
 50            220           3.077693     -999           3.077693
 60            220           6.275227     -999           6.275227
 70            220           .099572      -999           .099572 
 80            220           2.341879     -999           2.341879
 90            220           8.207203     -999           8.207203
 0             230          -999          -999          -999     
 10            230          -10.09772     -999          -10.09772
 20            230          -5.657324     -999          -5.657324
 30            230          -7.769503     -999          -7.769503
 40            230          -10.9748      -999          -10.9748 
 50            230           3.077693     -999           3.077693
 60            230           6.275227     -999           6.275227
 70            230           .099572      -999           .099572 
 80            230           2.341879     -999           2.341879
 90            230           8.207203     -999           8.207203
 0             240          -999          -999          -999     
 10            240          -10.09772     -999          -10.09772
 20            240          -5.657324     -999          -5.657324
 30            240          -7.769503     -999          -7.769503
 40            240          -10.9748      -999          -10.9748 
 50            240           3.077693     -999           3.077693
 60            240           6.275227     -999           6.275227
 70            240           .099572      -999           .099572 
 80            240           2.341879     -999           2.341879
 90            240           8.207203     -999           8.207203
 0             250          -999          -999          -999     
 10            250          -10.09772     -999          -10.09772
 20            250          -5.657324     -999          -5.657324
 30            250          -7.769503     -999          -7.769503
 40            250          -10.9748      -999          -10.9748 
 50            250           3.077693     -999           3.077693
 60            250           6.275227     -999           6.275227
 70            250           .099572      -999           .099572 
 80            250           2.341879     -999           2.341879
 90            250           8.207203     -999           8.207203
 0             260          -999          -999          -999     
 10            260          -10.09772     -999          -10.09772
 20            260          -5.657324     -999          -5.657324
 30            260          -7.769503     -999          -7.769503
 40            260          -10.9748      -999          -10.9748 
 50            260           3.077693     -999           3.077693
 60            260           6.275227     -999           6.275227
 70            260           .099572      -999           .099572 
 80            260           2.341879     -999           2.341879
 90            260           8.207203     -999           8.207203
 0             270          -999          -999          -999     
 10            270          -10.09772     -999          -10.09772
 20            270          -5.657324     -999          -5.657324
 30            270          -7.769503     -999          -7.769503
 40            270          -10.9748      -999          -10.9748 
 50            270           3.077693     -999           3.077693
 60            270           6.275227     -999           6.275227
 70            270           .099572      -999           .099572 
 80            270           2.341879     -999           2.341879
 90            270           8.207203     -999           8.207203
 0             280          -999          -999          -999     
 10            280          -10.09772     -999          -10.09772
 20            280          -5.657324     -999          -5.657324
 30            280          -7.769503     -999          -7.769503
 40            280          -10.9748      -999          -10.9748 
 50            280           3.077693     -999           3.077693
 60            280           6.275227     -999           6.275227
 70            280           .099572      -999           .099572 
 80            280           2.341879     -999           2.341879
 90            280           8.207203     -999           8.207203
 0             290          -999          -999          -999     
 10            290          -10.09772     -999          -10.09772
 20            290          -5.657324     -999          -5.657324
 30            290          -7.769503     -999          -7.769503
 40            290          -10.9748      -999          -10.9748 
 50            290           3.077693     -999           3.077693
 60            290           6.275227     -999           6.275227
 70            290           .099572      -999           .099572 
 80            290           2.341879     -999           2.341879
 90            290           8.207203     -999           8.207203
 0             300          -999          -999          -999     
 10            300          -10.09772     -999          -10.09772
 20            300          -5.657324     -999          -5.657324
 30            300          -7.769503     -999          -7.769503
 40            300          -10.9748      -999          -10.9748 
 50            300           3.077693     -999           3.077693
 60            300           6.275227     -999           6.275227
 70            300           .099572      -999           .099572 
 80            300           2.341879     -999           2.341879
 90            300           8.207203     -999           8.207203
 0             310          -999          -999          -999     
 10            310          -10.09772     -999          -10.09772
 20            310          -5.657324     -999          -5.657324
 30            310          -7.769503     -999          -7.769503
 40            310          -10.9748      -999          -10.9748 
 50            310           3.077693     -999           3.077693
 60            310           6.275227     -999           6.275227
 70            310           .099572      -999           .099572 
 80            310           2.341879     -999           2.341879
 90            310           8.207203     -999           8.207203
 0             320          -999          -999          -999     
 10            320          -10.09772     -999          -10.09772
 20            320          -5.657324     -999          -5.657324
 30            320          -7.769503     -999          -7.769503
 40            320          -10.9748      -999          -10.9748 
 50            320           3.077693     -999           3.077693
 60            320           6.275227     -999           6.275227
 70            320           .099572      -999           .099572 
 80            320           2.341879     -999           2.341879
 90            320           8.207203     -999           8.207203
 0             330          -999          -999          -999     
 10            330          -10.09772     -999          -10.09772
 20            330          -5.657324     -999          -5.657324
 30            330          -7.769503     -999          -7.769503
 40            330          -10.9748      -999          -10.9748 
 50            330           3.077693     -999           3.077693
 60            330           6.275227     -999           6.275227
 70            330           .099572      -999           .099572 
 80            330           2.341879     -999           2.341879
 90            330           8.207203     -999           8.207203
 0             340          -999          -999          -999     
 10            340          -10.09772     -999          -10.09772
 20            340          -5.657324     -999          -5.657324
 30            340          -7.769503     -999          -7.769503
 40            340          -10.9748      -999          -10.9748 
 50            340           3.077693     -999           3.077693
 60            340           6.275227     -999           6.275227
 70            340           .099572      -999           .099572 
 80            340           2.341879     -999           2.341879
 90            340           8.207203     -999           8.207203
 0             350          -999          -999          -999     
 10            350          -10.09772     -999          -10.09772
 20            350          -5.657324     -999          -5.657324
 30            350          -7.769503     -999          -7.769503
 40            350          -10.9748      -999          -10.9748 
 50            350           3.077693     -999           3.077693
 60            350           6.275227     -999           6.275227
 70            350           .099572      -999           .099572 
 80            350           2.341879     -999           2.341879
 90            350           8.207203     -999           8.207203
 0             360          -999          -999          -999     
 10            360          -10.09772     -999          -10.09772
 20            360          -5.657324     -999          -5.657324
 30            360          -7.769503     -999          -7.769503
 40            360          -10.9748      -999          -10.9748 
 50            360           3.077693     -999           3.077693
 60            360           6.275227     -999           6.275227
 70            360           .099572      -999           .099572 
 80            360           2.341879     -999           2.341879
 90            360           8.207203     -999           8.207203
