                   ****************************************
                     MINI-NUMERICAL ELECTROMAGNETICS CODE
                                   MININEC
                       07-02-2022              21:31:03
                   ****************************************
 
FREQUENCY (MHZ): 28.074 
    WAVE LENGTH =  10.67892  METERS
 
ENVIRONMENT (+1 FOR FREE SPACE, -1 FOR GROUND PLANE): -1 
 NUMBER OF MEDIA (0 FOR PERFECTLY CONDUCTING GROUND):  0 
 
NO. OF WIRES: 1 
 
WIRE NO. 1 
            COORDINATES                                 END         NO. OF
   X             Y             Z          RADIUS     CONNECTION     SEGMENTS
 0             0             7.33                        0 
 0             0             12.7          .01           0             10 
 
                  **** ANTENNA GEOMETRY ****
 
WIRE NO.  1  COORDINATES                                CONNECTION PULSE
X             Y             Z             RADIUS        END1 END2  NO.
 0             0             7.867         .01            0    1    1
 0             0             8.404         .01            1    1    2
 0             0             8.941         .01            1    1    3
 0             0             9.478         .01            1    1    4
 0             0             10.015        .01            1    1    5
 0             0             10.552        .01            1    1    6
 0             0             11.089        .01            1    1    7
 0             0             11.626        .01            1    1    8
 0             0             12.163        .01            1    0    9
 
NO. OF SOURCES :  1 
PULSE NO., VOLTAGE MAGNITUDE, PHASE (DEGREES):  5 , 1 , 0 
NUMBER OF LOADS 0 
 
********************    SOURCE DATA     ********************
PULSE  5      VOLTAGE = ( 1 , 0 J)
              CURRENT = ( 9.546476E-03 ,-5.103065E-03 J)
              IMPEDANCE = ( 81.47093 , 43.55025 J)
              POWER =  4.773238E-03  WATTS
 
********************    CURRENT DATA    ********************
 
WIRE NO.  1 :
PULSE         REAL          IMAGINARY     MAGNITUDE     PHASE
 NO.          (AMPS)        (AMPS)        (AMPS)        (DEGREES)
E              0             0             0             0 
 1             3.223094E-03 -2.285014E-03  3.950901E-03 -35.33474 
 2             5.822454E-03 -3.956823E-03  7.039703E-03 -34.19924 
 3             7.830166E-03 -5.054334E-03  9.319751E-03 -32.84205 
 4             9.105726E-03 -5.48566E-03   1.063046E-02 -31.06647 
 5             9.546476E-03 -5.103065E-03  1.082481E-02 -28.12671 
 6             9.114996E-03 -5.485157E-03  1.063814E-02 -31.03838 
 7             7.846141E-03 -5.053389E-03  9.332666E-03 -32.78398 
 8             5.840334E-03 -3.95561E-03   7.053818E-03 -34.10945 
 9             3.236368E-03 -2.283943E-03  3.96112E-03  -35.21107 
E              0             0             0             0 
 
********************     FAR FIELD      ********************
 
ZENITH ANGLE : INITIAL,INCREMENT,NUMBER:  0 , 10 , 10 
AZIMUTH ANGLE: INITIAL,INCREMENT,NUMBER:  0 , 10 , 37 
 
 
FILENAME (NAME.OUT): VDIP01G0.GNN
 
********************    PATTERN DATA    ********************
ZENITH        AZIMUTH       VERTICAL      HORIZONTAL    TOTAL
 ANGLE         ANGLE        PATTERN (DB)  PATTERN (DB)  PATTERN (DB)
 0             0            -999          -999          -999 
 10            0            -10.12914     -999          -10.12914 
 20            0            -5.684269     -999          -5.684269 
 30            0            -7.788719     -999          -7.788719 
 40            0            -10.99725     -999          -10.99725 
 50            0             3.067867     -999           3.067867 
 60            0             6.272616     -999           6.272616 
 70            0             .1027624     -999           .1027624 
 80            0             2.346621     -999           2.346621 
 90            0             8.213542     -999           8.213542 
 0             10           -999          -999          -999 
 10            10           -10.12914     -999          -10.12914 
 20            10           -5.684269     -999          -5.684269 
 30            10           -7.788719     -999          -7.788719 
 40            10           -10.99725     -999          -10.99725 
 50            10            3.067867     -999           3.067867 
 60            10            6.272616     -999           6.272616 
 70            10            .1027624     -999           .1027624 
 80            10            2.346621     -999           2.346621 
 90            10            8.213542     -999           8.213542 
 0             20           -999          -999          -999 
 10            20           -10.12914     -999          -10.12914 
 20            20           -5.684269     -999          -5.684269 
 30            20           -7.788719     -999          -7.788719 
 40            20           -10.99725     -999          -10.99725 
 50            20            3.067867     -999           3.067867 
 60            20            6.272616     -999           6.272616 
 70            20            .1027624     -999           .1027624 
 80            20            2.346621     -999           2.346621 
 90            20            8.213542     -999           8.213542 
 0             30           -999          -999          -999 
 10            30           -10.12914     -999          -10.12914 
 20            30           -5.684269     -999          -5.684269 
 30            30           -7.788719     -999          -7.788719 
 40            30           -10.99725     -999          -10.99725 
 50            30            3.067867     -999           3.067867 
 60            30            6.272616     -999           6.272616 
 70            30            .1027624     -999           .1027624 
 80            30            2.346621     -999           2.346621 
 90            30            8.213542     -999           8.213542 
 0             40           -999          -999          -999 
 10            40           -10.12914     -999          -10.12914 
 20            40           -5.684269     -999          -5.684269 
 30            40           -7.788719     -999          -7.788719 
 40            40           -10.99725     -999          -10.99725 
 50            40            3.067867     -999           3.067867 
 60            40            6.272616     -999           6.272616 
 70            40            .1027624     -999           .1027624 
 80            40            2.346621     -999           2.346621 
 90            40            8.213542     -999           8.213542 
 0             50           -999          -999          -999 
 10            50           -10.12914     -999          -10.12914 
 20            50           -5.684269     -999          -5.684269 
 30            50           -7.788719     -999          -7.788719 
 40            50           -10.99725     -999          -10.99725 
 50            50            3.067867     -999           3.067867 
 60            50            6.272616     -999           6.272616 
 70            50            .1027624     -999           .1027624 
 80            50            2.346621     -999           2.346621 
 90            50            8.213542     -999           8.213542 
 0             60           -999          -999          -999 
 10            60           -10.12914     -999          -10.12914 
 20            60           -5.684269     -999          -5.684269 
 30            60           -7.788719     -999          -7.788719 
 40            60           -10.99725     -999          -10.99725 
 50            60            3.067867     -999           3.067867 
 60            60            6.272616     -999           6.272616 
 70            60            .1027624     -999           .1027624 
 80            60            2.346621     -999           2.346621 
 90            60            8.213542     -999           8.213542 
 0             70           -999          -999          -999 
 10            70           -10.12914     -999          -10.12914 
 20            70           -5.684269     -999          -5.684269 
 30            70           -7.788719     -999          -7.788719 
 40            70           -10.99725     -999          -10.99725 
 50            70            3.067867     -999           3.067867 
 60            70            6.272616     -999           6.272616 
 70            70            .1027624     -999           .1027624 
 80            70            2.346621     -999           2.346621 
 90            70            8.213542     -999           8.213542 
 0             80           -999          -999          -999 
 10            80           -10.12914     -999          -10.12914 
 20            80           -5.684269     -999          -5.684269 
 30            80           -7.788719     -999          -7.788719 
 40            80           -10.99725     -999          -10.99725 
 50            80            3.067867     -999           3.067867 
 60            80            6.272616     -999           6.272616 
 70            80            .1027624     -999           .1027624 
 80            80            2.346621     -999           2.346621 
 90            80            8.213542     -999           8.213542 
 0             90           -999          -999          -999 
 10            90           -10.12914     -999          -10.12914 
 20            90           -5.684269     -999          -5.684269 
 30            90           -7.788719     -999          -7.788719 
 40            90           -10.99725     -999          -10.99725 
 50            90            3.067867     -999           3.067867 
 60            90            6.272616     -999           6.272616 
 70            90            .1027624     -999           .1027624 
 80            90            2.346621     -999           2.346621 
 90            90            8.213542     -999           8.213542 
 0             100          -999          -999          -999 
 10            100          -10.12914     -999          -10.12914 
 20            100          -5.684269     -999          -5.684269 
 30            100          -7.788719     -999          -7.788719 
 40            100          -10.99725     -999          -10.99725 
 50            100           3.067867     -999           3.067867 
 60            100           6.272616     -999           6.272616 
 70            100           .1027624     -999           .1027624 
 80            100           2.346621     -999           2.346621 
 90            100           8.213542     -999           8.213542 
 0             110          -999          -999          -999 
 10            110          -10.12914     -999          -10.12914 
 20            110          -5.684269     -999          -5.684269 
 30            110          -7.788719     -999          -7.788719 
 40            110          -10.99725     -999          -10.99725 
 50            110           3.067867     -999           3.067867 
 60            110           6.272616     -999           6.272616 
 70            110           .1027624     -999           .1027624 
 80            110           2.346621     -999           2.346621 
 90            110           8.213542     -999           8.213542 
 0             120          -999          -999          -999 
 10            120          -10.12914     -999          -10.12914 
 20            120          -5.684269     -999          -5.684269 
 30            120          -7.788719     -999          -7.788719 
 40            120          -10.99725     -999          -10.99725 
 50            120           3.067867     -999           3.067867 
 60            120           6.272616     -999           6.272616 
 70            120           .1027624     -999           .1027624 
 80            120           2.346621     -999           2.346621 
 90            120           8.213542     -999           8.213542 
 0             130          -999          -999          -999 
 10            130          -10.12914     -999          -10.12914 
 20            130          -5.684269     -999          -5.684269 
 30            130          -7.788719     -999          -7.788719 
 40            130          -10.99725     -999          -10.99725 
 50            130           3.067867     -999           3.067867 
 60            130           6.272616     -999           6.272616 
 70            130           .1027624     -999           .1027624 
 80            130           2.346621     -999           2.346621 
 90            130           8.213542     -999           8.213542 
 0             140          -999          -999          -999 
 10            140          -10.12914     -999          -10.12914 
 20            140          -5.684269     -999          -5.684269 
 30            140          -7.788719     -999          -7.788719 
 40            140          -10.99725     -999          -10.99725 
 50            140           3.067867     -999           3.067867 
 60            140           6.272616     -999           6.272616 
 70            140           .1027624     -999           .1027624 
 80            140           2.346621     -999           2.346621 
 90            140           8.213542     -999           8.213542 
 0             150          -999          -999          -999 
 10            150          -10.12914     -999          -10.12914 
 20            150          -5.684269     -999          -5.684269 
 30            150          -7.788719     -999          -7.788719 
 40            150          -10.99725     -999          -10.99725 
 50            150           3.067867     -999           3.067867 
 60            150           6.272616     -999           6.272616 
 70            150           .1027624     -999           .1027624 
 80            150           2.346621     -999           2.346621 
 90            150           8.213542     -999           8.213542 
 0             160          -999          -999          -999 
 10            160          -10.12914     -999          -10.12914 
 20            160          -5.684269     -999          -5.684269 
 30            160          -7.788719     -999          -7.788719 
 40            160          -10.99725     -999          -10.99725 
 50            160           3.067867     -999           3.067867 
 60            160           6.272616     -999           6.272616 
 70            160           .1027624     -999           .1027624 
 80            160           2.346621     -999           2.346621 
 90            160           8.213542     -999           8.213542 
 0             170          -999          -999          -999 
 10            170          -10.12914     -999          -10.12914 
 20            170          -5.684269     -999          -5.684269 
 30            170          -7.788719     -999          -7.788719 
 40            170          -10.99725     -999          -10.99725 
 50            170           3.067867     -999           3.067867 
 60            170           6.272616     -999           6.272616 
 70            170           .1027624     -999           .1027624 
 80            170           2.346621     -999           2.346621 
 90            170           8.213542     -999           8.213542 
 0             180          -999          -999          -999 
 10            180          -10.12914     -999          -10.12914 
 20            180          -5.684269     -999          -5.684269 
 30            180          -7.788719     -999          -7.788719 
 40            180          -10.99725     -999          -10.99725 
 50            180           3.067867     -999           3.067867 
 60            180           6.272616     -999           6.272616 
 70            180           .1027624     -999           .1027624 
 80            180           2.346621     -999           2.346621 
 90            180           8.213542     -999           8.213542 
 0             190          -999          -999          -999 
 10            190          -10.12914     -999          -10.12914 
 20            190          -5.684269     -999          -5.684269 
 30            190          -7.788719     -999          -7.788719 
 40            190          -10.99725     -999          -10.99725 
 50            190           3.067867     -999           3.067867 
 60            190           6.272616     -999           6.272616 
 70            190           .1027624     -999           .1027624 
 80            190           2.346621     -999           2.346621 
 90            190           8.213542     -999           8.213542 
 0             200          -999          -999          -999 
 10            200          -10.12914     -999          -10.12914 
 20            200          -5.684269     -999          -5.684269 
 30            200          -7.788719     -999          -7.788719 
 40            200          -10.99725     -999          -10.99725 
 50            200           3.067867     -999           3.067867 
 60            200           6.272616     -999           6.272616 
 70            200           .1027624     -999           .1027624 
 80            200           2.346621     -999           2.346621 
 90            200           8.213542     -999           8.213542 
 0             210          -999          -999          -999 
 10            210          -10.12914     -999          -10.12914 
 20            210          -5.684269     -999          -5.684269 
 30            210          -7.788719     -999          -7.788719 
 40            210          -10.99725     -999          -10.99725 
 50            210           3.067867     -999           3.067867 
 60            210           6.272616     -999           6.272616 
 70            210           .1027624     -999           .1027624 
 80            210           2.346621     -999           2.346621 
 90            210           8.213542     -999           8.213542 
 0             220          -999          -999          -999 
 10            220          -10.12914     -999          -10.12914 
 20            220          -5.684269     -999          -5.684269 
 30            220          -7.788719     -999          -7.788719 
 40            220          -10.99725     -999          -10.99725 
 50            220           3.067867     -999           3.067867 
 60            220           6.272616     -999           6.272616 
 70            220           .1027624     -999           .1027624 
 80            220           2.346621     -999           2.346621 
 90            220           8.213542     -999           8.213542 
 0             230          -999          -999          -999 
 10            230          -10.12914     -999          -10.12914 
 20            230          -5.684269     -999          -5.684269 
 30            230          -7.788719     -999          -7.788719 
 40            230          -10.99725     -999          -10.99725 
 50            230           3.067867     -999           3.067867 
 60            230           6.272616     -999           6.272616 
 70            230           .1027624     -999           .1027624 
 80            230           2.346621     -999           2.346621 
 90            230           8.213542     -999           8.213542 
 0             240          -999          -999          -999 
 10            240          -10.12914     -999          -10.12914 
 20            240          -5.684269     -999          -5.684269 
 30            240          -7.788719     -999          -7.788719 
 40            240          -10.99725     -999          -10.99725 
 50            240           3.067867     -999           3.067867 
 60            240           6.272616     -999           6.272616 
 70            240           .1027624     -999           .1027624 
 80            240           2.346621     -999           2.346621 
 90            240           8.213542     -999           8.213542 
 0             250          -999          -999          -999 
 10            250          -10.12914     -999          -10.12914 
 20            250          -5.684269     -999          -5.684269 
 30            250          -7.788719     -999          -7.788719 
 40            250          -10.99725     -999          -10.99725 
 50            250           3.067867     -999           3.067867 
 60            250           6.272616     -999           6.272616 
 70            250           .1027624     -999           .1027624 
 80            250           2.346621     -999           2.346621 
 90            250           8.213542     -999           8.213542 
 0             260          -999          -999          -999 
 10            260          -10.12914     -999          -10.12914 
 20            260          -5.684269     -999          -5.684269 
 30            260          -7.788719     -999          -7.788719 
 40            260          -10.99725     -999          -10.99725 
 50            260           3.067867     -999           3.067867 
 60            260           6.272616     -999           6.272616 
 70            260           .1027624     -999           .1027624 
 80            260           2.346621     -999           2.346621 
 90            260           8.213542     -999           8.213542 
 0             270          -999          -999          -999 
 10            270          -10.12914     -999          -10.12914 
 20            270          -5.684269     -999          -5.684269 
 30            270          -7.788719     -999          -7.788719 
 40            270          -10.99725     -999          -10.99725 
 50            270           3.067867     -999           3.067867 
 60            270           6.272616     -999           6.272616 
 70            270           .1027624     -999           .1027624 
 80            270           2.346621     -999           2.346621 
 90            270           8.213542     -999           8.213542 
 0             280          -999          -999          -999 
 10            280          -10.12914     -999          -10.12914 
 20            280          -5.684269     -999          -5.684269 
 30            280          -7.788719     -999          -7.788719 
 40            280          -10.99725     -999          -10.99725 
 50            280           3.067867     -999           3.067867 
 60            280           6.272616     -999           6.272616 
 70            280           .1027624     -999           .1027624 
 80            280           2.346621     -999           2.346621 
 90            280           8.213542     -999           8.213542 
 0             290          -999          -999          -999 
 10            290          -10.12914     -999          -10.12914 
 20            290          -5.684269     -999          -5.684269 
 30            290          -7.788719     -999          -7.788719 
 40            290          -10.99725     -999          -10.99725 
 50            290           3.067867     -999           3.067867 
 60            290           6.272616     -999           6.272616 
 70            290           .1027624     -999           .1027624 
 80            290           2.346621     -999           2.346621 
 90            290           8.213542     -999           8.213542 
 0             300          -999          -999          -999 
 10            300          -10.12914     -999          -10.12914 
 20            300          -5.684269     -999          -5.684269 
 30            300          -7.788719     -999          -7.788719 
 40            300          -10.99725     -999          -10.99725 
 50            300           3.067867     -999           3.067867 
 60            300           6.272616     -999           6.272616 
 70            300           .1027624     -999           .1027624 
 80            300           2.346621     -999           2.346621 
 90            300           8.213542     -999           8.213542 
 0             310          -999          -999          -999 
 10            310          -10.12914     -999          -10.12914 
 20            310          -5.684269     -999          -5.684269 
 30            310          -7.788719     -999          -7.788719 
 40            310          -10.99725     -999          -10.99725 
 50            310           3.067867     -999           3.067867 
 60            310           6.272616     -999           6.272616 
 70            310           .1027624     -999           .1027624 
 80            310           2.346621     -999           2.346621 
 90            310           8.213542     -999           8.213542 
 0             320          -999          -999          -999 
 10            320          -10.12914     -999          -10.12914 
 20            320          -5.684269     -999          -5.684269 
 30            320          -7.788719     -999          -7.788719 
 40            320          -10.99725     -999          -10.99725 
 50            320           3.067867     -999           3.067867 
 60            320           6.272616     -999           6.272616 
 70            320           .1027624     -999           .1027624 
 80            320           2.346621     -999           2.346621 
 90            320           8.213542     -999           8.213542 
 0             330          -999          -999          -999 
 10            330          -10.12914     -999          -10.12914 
 20            330          -5.684269     -999          -5.684269 
 30            330          -7.788719     -999          -7.788719 
 40            330          -10.99725     -999          -10.99725 
 50            330           3.067867     -999           3.067867 
 60            330           6.272616     -999           6.272616 
 70            330           .1027624     -999           .1027624 
 80            330           2.346621     -999           2.346621 
 90            330           8.213542     -999           8.213542 
 0             340          -999          -999          -999 
 10            340          -10.12914     -999          -10.12914 
 20            340          -5.684269     -999          -5.684269 
 30            340          -7.788719     -999          -7.788719 
 40            340          -10.99725     -999          -10.99725 
 50            340           3.067867     -999           3.067867 
 60            340           6.272616     -999           6.272616 
 70            340           .1027624     -999           .1027624 
 80            340           2.346621     -999           2.346621 
 90            340           8.213542     -999           8.213542 
 0             350          -999          -999          -999 
 10            350          -10.12914     -999          -10.12914 
 20            350          -5.684269     -999          -5.684269 
 30            350          -7.788719     -999          -7.788719 
 40            350          -10.99725     -999          -10.99725 
 50            350           3.067867     -999           3.067867 
 60            350           6.272616     -999           6.272616 
 70            350           .1027624     -999           .1027624 
 80            350           2.346621     -999           2.346621 
 90            350           8.213542     -999           8.213542 
 0             360          -999          -999          -999 
 10            360          -10.12914     -999          -10.12914 
 20            360          -5.684269     -999          -5.684269 
 30            360          -7.788719     -999          -7.788719 
 40            360          -10.99725     -999          -10.99725 
 50            360           3.067867     -999           3.067867 
 60            360           6.272616     -999           6.272616 
 70            360           .1027624     -999           .1027624 
 80            360           2.346621     -999           2.346621 
 90            360           8.213542     -999           8.213542 
