                   ****************************************
                     MINI-NUMERICAL ELECTROMAGNETICS CODE
                                   MININEC
                   ****************************************

FREQUENCY (MHZ): 28.074
    WAVE LENGTH =  10.67892  METERS

ENVIRONMENT (+1 FOR FREE SPACE, -1 FOR GROUND PLANE): +1

NO. OF WIRES: 1

WIRE NO. 1
            COORDINATES                                 END         NO. OF
   X             Y             Z          RADIUS     CONNECTION     SEGMENTS
 0             0             7.33                       0
 0             0             12.7          .01          0             10

                  **** ANTENNA GEOMETRY ****

WIRE NO.  1  COORDINATES                                CONNECTION PULSE
X             Y             Z             RADIUS        END1 END2  NO.
 0             0             7.867         .01           0    1   1
 0             0             8.404         .01           1    1   2
 0             0             8.941         .01           1    1   3
 0             0             9.478         .01           1    1   4
 0             0             10.015        .01           1    1   5
 0             0             10.552        .01           1    1   6
 0             0             11.089        .01           1    1   7
 0             0             11.626        .01           1    1   8
 0             0             12.163        .01           1    0   9

NO. OF SOURCES :  1
PULSE NO., VOLTAGE MAGNITUDE, PHASE (DEGREES):  5 , 1 , 0

********************    SOURCE DATA     ********************
PULSE  5      VOLTAGE = ( 1 , 0 J)
              CURRENT = ( 9.411444E-03 , -5.065368E-03 J)
              IMPEDANCE = (  82.38796 ,  44.34234 J)
              POWER =  4.705723E-03  WATTS

********************    CURRENT DATA    ********************

WIRE NO.  1 :
PULSE         REAL          IMAGINARY     MAGNITUDE     PHASE
 NO.          (AMPS)        (AMPS)        (AMPS)        (DEGREES)
E              0             0             0             0
 1             3.184347E-03 -2.270048E-03  3.910651E-03 -35.48422 
 2             5.749221E-03 -3.931541E-03  6.964953E-03 -34.36585 
 3             7.727473E-03 -5.021945E-03  9.215953E-03 -33.01912 
 4             8.981552E-03 -5.449156E-03  1.050531E-02 -31.24542 
 5             9.411444E-03 -5.065368E-03  1.068800E-02 -28.28975 
 6             8.981552E-03 -5.449156E-03  1.050531E-02 -31.24542 
 7             7.727473E-03 -5.021945E-03  9.215953E-03 -33.01912 
 8             5.749221E-03 -3.931541E-03  6.964953E-03 -34.36585 
 9             3.184347E-03 -2.270048E-03  3.910651E-03 -35.48422 
E              0             0             0             0

********************     FAR FIELD      ********************

ZENITH ANGLE : INITIAL,INCREMENT,NUMBER:  0 , 10 , 19
AZIMUTH ANGLE: INITIAL,INCREMENT,NUMBER:  0 , 10 , 37

********************    PATTERN DATA    ********************
ZENITH        AZIMUTH       VERTICAL      HORIZONTAL    TOTAL
 ANGLE         ANGLE        PATTERN (DB)  PATTERN (DB)  PATTERN (DB)
 0             0            -999          -999          -999     
 10            0            -15.15328     -999          -15.15328
 20            0            -9.07117      -999          -9.07117 
 30            0            -5.477575     -999          -5.477575
 40            0            -2.937858     -999          -2.937858
 50            0            -1.03851      -999          -1.03851 
 60            0             .375373      -999           .375373 
 70            0             1.365262     -999           1.365262
 80            0             1.954343     -999           1.954343
 90            0             2.150169     -999           2.150169
 100           0             1.954343     -999           1.954343
 110           0             1.365262     -999           1.365262
 120           0             .375373      -999           .375373 
 130           0            -1.03851      -999          -1.03851 
 140           0            -2.937858     -999          -2.937858
 150           0            -5.477575     -999          -5.477575
 160           0            -9.07117      -999          -9.07117 
 170           0            -15.15328     -999          -15.15328
 180           0            -999          -999          -999     
 0             10           -999          -999          -999     
 10            10           -15.15328     -999          -15.15328
 20            10           -9.07117      -999          -9.07117 
 30            10           -5.477575     -999          -5.477575
 40            10           -2.937858     -999          -2.937858
 50            10           -1.03851      -999          -1.03851 
 60            10            .375373      -999           .375373 
 70            10            1.365262     -999           1.365262
 80            10            1.954343     -999           1.954343
 90            10            2.150169     -999           2.150169
 100           10            1.954343     -999           1.954343
 110           10            1.365262     -999           1.365262
 120           10            .375373      -999           .375373 
 130           10           -1.03851      -999          -1.03851 
 140           10           -2.937858     -999          -2.937858
 150           10           -5.477575     -999          -5.477575
 160           10           -9.07117      -999          -9.07117 
 170           10           -15.15328     -999          -15.15328
 180           10           -999          -999          -999     
 0             20           -999          -999          -999     
 10            20           -15.15328     -999          -15.15328
 20            20           -9.07117      -999          -9.07117 
 30            20           -5.477575     -999          -5.477575
 40            20           -2.937858     -999          -2.937858
 50            20           -1.03851      -999          -1.03851 
 60            20            .375373      -999           .375373 
 70            20            1.365262     -999           1.365262
 80            20            1.954343     -999           1.954343
 90            20            2.150169     -999           2.150169
 100           20            1.954343     -999           1.954343
 110           20            1.365262     -999           1.365262
 120           20            .375373      -999           .375373 
 130           20           -1.03851      -999          -1.03851 
 140           20           -2.937858     -999          -2.937858
 150           20           -5.477575     -999          -5.477575
 160           20           -9.07117      -999          -9.07117 
 170           20           -15.15328     -999          -15.15328
 180           20           -999          -999          -999     
 0             30           -999          -999          -999     
 10            30           -15.15328     -999          -15.15328
 20            30           -9.07117      -999          -9.07117 
 30            30           -5.477575     -999          -5.477575
 40            30           -2.937858     -999          -2.937858
 50            30           -1.03851      -999          -1.03851 
 60            30            .375373      -999           .375373 
 70            30            1.365262     -999           1.365262
 80            30            1.954343     -999           1.954343
 90            30            2.150169     -999           2.150169
 100           30            1.954343     -999           1.954343
 110           30            1.365262     -999           1.365262
 120           30            .375373      -999           .375373 
 130           30           -1.03851      -999          -1.03851 
 140           30           -2.937858     -999          -2.937858
 150           30           -5.477575     -999          -5.477575
 160           30           -9.07117      -999          -9.07117 
 170           30           -15.15328     -999          -15.15328
 180           30           -999          -999          -999     
 0             40           -999          -999          -999     
 10            40           -15.15328     -999          -15.15328
 20            40           -9.07117      -999          -9.07117 
 30            40           -5.477575     -999          -5.477575
 40            40           -2.937858     -999          -2.937858
 50            40           -1.03851      -999          -1.03851 
 60            40            .375373      -999           .375373 
 70            40            1.365262     -999           1.365262
 80            40            1.954343     -999           1.954343
 90            40            2.150169     -999           2.150169
 100           40            1.954343     -999           1.954343
 110           40            1.365262     -999           1.365262
 120           40            .375373      -999           .375373 
 130           40           -1.03851      -999          -1.03851 
 140           40           -2.937858     -999          -2.937858
 150           40           -5.477575     -999          -5.477575
 160           40           -9.07117      -999          -9.07117 
 170           40           -15.15328     -999          -15.15328
 180           40           -999          -999          -999     
 0             50           -999          -999          -999     
 10            50           -15.15328     -999          -15.15328
 20            50           -9.07117      -999          -9.07117 
 30            50           -5.477575     -999          -5.477575
 40            50           -2.937858     -999          -2.937858
 50            50           -1.03851      -999          -1.03851 
 60            50            .375373      -999           .375373 
 70            50            1.365262     -999           1.365262
 80            50            1.954343     -999           1.954343
 90            50            2.150169     -999           2.150169
 100           50            1.954343     -999           1.954343
 110           50            1.365262     -999           1.365262
 120           50            .375373      -999           .375373 
 130           50           -1.03851      -999          -1.03851 
 140           50           -2.937858     -999          -2.937858
 150           50           -5.477575     -999          -5.477575
 160           50           -9.07117      -999          -9.07117 
 170           50           -15.15328     -999          -15.15328
 180           50           -999          -999          -999     
 0             60           -999          -999          -999     
 10            60           -15.15328     -999          -15.15328
 20            60           -9.07117      -999          -9.07117 
 30            60           -5.477575     -999          -5.477575
 40            60           -2.937858     -999          -2.937858
 50            60           -1.03851      -999          -1.03851 
 60            60            .375373      -999           .375373 
 70            60            1.365262     -999           1.365262
 80            60            1.954343     -999           1.954343
 90            60            2.150169     -999           2.150169
 100           60            1.954343     -999           1.954343
 110           60            1.365262     -999           1.365262
 120           60            .375373      -999           .375373 
 130           60           -1.03851      -999          -1.03851 
 140           60           -2.937858     -999          -2.937858
 150           60           -5.477575     -999          -5.477575
 160           60           -9.07117      -999          -9.07117 
 170           60           -15.15328     -999          -15.15328
 180           60           -999          -999          -999     
 0             70           -999          -999          -999     
 10            70           -15.15328     -999          -15.15328
 20            70           -9.07117      -999          -9.07117 
 30            70           -5.477575     -999          -5.477575
 40            70           -2.937858     -999          -2.937858
 50            70           -1.03851      -999          -1.03851 
 60            70            .375373      -999           .375373 
 70            70            1.365262     -999           1.365262
 80            70            1.954343     -999           1.954343
 90            70            2.150169     -999           2.150169
 100           70            1.954343     -999           1.954343
 110           70            1.365262     -999           1.365262
 120           70            .375373      -999           .375373 
 130           70           -1.03851      -999          -1.03851 
 140           70           -2.937858     -999          -2.937858
 150           70           -5.477575     -999          -5.477575
 160           70           -9.07117      -999          -9.07117 
 170           70           -15.15328     -999          -15.15328
 180           70           -999          -999          -999     
 0             80           -999          -999          -999     
 10            80           -15.15328     -999          -15.15328
 20            80           -9.07117      -999          -9.07117 
 30            80           -5.477575     -999          -5.477575
 40            80           -2.937858     -999          -2.937858
 50            80           -1.03851      -999          -1.03851 
 60            80            .375373      -999           .375373 
 70            80            1.365262     -999           1.365262
 80            80            1.954343     -999           1.954343
 90            80            2.150169     -999           2.150169
 100           80            1.954343     -999           1.954343
 110           80            1.365262     -999           1.365262
 120           80            .375373      -999           .375373 
 130           80           -1.03851      -999          -1.03851 
 140           80           -2.937858     -999          -2.937858
 150           80           -5.477575     -999          -5.477575
 160           80           -9.07117      -999          -9.07117 
 170           80           -15.15328     -999          -15.15328
 180           80           -999          -999          -999     
 0             90           -999          -999          -999     
 10            90           -15.15328     -999          -15.15328
 20            90           -9.07117      -999          -9.07117 
 30            90           -5.477575     -999          -5.477575
 40            90           -2.937858     -999          -2.937858
 50            90           -1.03851      -999          -1.03851 
 60            90            .375373      -999           .375373 
 70            90            1.365262     -999           1.365262
 80            90            1.954343     -999           1.954343
 90            90            2.150169     -999           2.150169
 100           90            1.954343     -999           1.954343
 110           90            1.365262     -999           1.365262
 120           90            .375373      -999           .375373 
 130           90           -1.03851      -999          -1.03851 
 140           90           -2.937858     -999          -2.937858
 150           90           -5.477575     -999          -5.477575
 160           90           -9.07117      -999          -9.07117 
 170           90           -15.15328     -999          -15.15328
 180           90           -999          -999          -999     
 0             100          -999          -999          -999     
 10            100          -15.15328     -999          -15.15328
 20            100          -9.07117      -999          -9.07117 
 30            100          -5.477575     -999          -5.477575
 40            100          -2.937858     -999          -2.937858
 50            100          -1.03851      -999          -1.03851 
 60            100           .375373      -999           .375373 
 70            100           1.365262     -999           1.365262
 80            100           1.954343     -999           1.954343
 90            100           2.150169     -999           2.150169
 100           100           1.954343     -999           1.954343
 110           100           1.365262     -999           1.365262
 120           100           .375373      -999           .375373 
 130           100          -1.03851      -999          -1.03851 
 140           100          -2.937858     -999          -2.937858
 150           100          -5.477575     -999          -5.477575
 160           100          -9.07117      -999          -9.07117 
 170           100          -15.15328     -999          -15.15328
 180           100          -999          -999          -999     
 0             110          -999          -999          -999     
 10            110          -15.15328     -999          -15.15328
 20            110          -9.07117      -999          -9.07117 
 30            110          -5.477575     -999          -5.477575
 40            110          -2.937858     -999          -2.937858
 50            110          -1.03851      -999          -1.03851 
 60            110           .375373      -999           .375373 
 70            110           1.365262     -999           1.365262
 80            110           1.954343     -999           1.954343
 90            110           2.150169     -999           2.150169
 100           110           1.954343     -999           1.954343
 110           110           1.365262     -999           1.365262
 120           110           .375373      -999           .375373 
 130           110          -1.03851      -999          -1.03851 
 140           110          -2.937858     -999          -2.937858
 150           110          -5.477575     -999          -5.477575
 160           110          -9.07117      -999          -9.07117 
 170           110          -15.15328     -999          -15.15328
 180           110          -999          -999          -999     
 0             120          -999          -999          -999     
 10            120          -15.15328     -999          -15.15328
 20            120          -9.07117      -999          -9.07117 
 30            120          -5.477575     -999          -5.477575
 40            120          -2.937858     -999          -2.937858
 50            120          -1.03851      -999          -1.03851 
 60            120           .375373      -999           .375373 
 70            120           1.365262     -999           1.365262
 80            120           1.954343     -999           1.954343
 90            120           2.150169     -999           2.150169
 100           120           1.954343     -999           1.954343
 110           120           1.365262     -999           1.365262
 120           120           .375373      -999           .375373 
 130           120          -1.03851      -999          -1.03851 
 140           120          -2.937858     -999          -2.937858
 150           120          -5.477575     -999          -5.477575
 160           120          -9.07117      -999          -9.07117 
 170           120          -15.15328     -999          -15.15328
 180           120          -999          -999          -999     
 0             130          -999          -999          -999     
 10            130          -15.15328     -999          -15.15328
 20            130          -9.07117      -999          -9.07117 
 30            130          -5.477575     -999          -5.477575
 40            130          -2.937858     -999          -2.937858
 50            130          -1.03851      -999          -1.03851 
 60            130           .375373      -999           .375373 
 70            130           1.365262     -999           1.365262
 80            130           1.954343     -999           1.954343
 90            130           2.150169     -999           2.150169
 100           130           1.954343     -999           1.954343
 110           130           1.365262     -999           1.365262
 120           130           .375373      -999           .375373 
 130           130          -1.03851      -999          -1.03851 
 140           130          -2.937858     -999          -2.937858
 150           130          -5.477575     -999          -5.477575
 160           130          -9.07117      -999          -9.07117 
 170           130          -15.15328     -999          -15.15328
 180           130          -999          -999          -999     
 0             140          -999          -999          -999     
 10            140          -15.15328     -999          -15.15328
 20            140          -9.07117      -999          -9.07117 
 30            140          -5.477575     -999          -5.477575
 40            140          -2.937858     -999          -2.937858
 50            140          -1.03851      -999          -1.03851 
 60            140           .375373      -999           .375373 
 70            140           1.365262     -999           1.365262
 80            140           1.954343     -999           1.954343
 90            140           2.150169     -999           2.150169
 100           140           1.954343     -999           1.954343
 110           140           1.365262     -999           1.365262
 120           140           .375373      -999           .375373 
 130           140          -1.03851      -999          -1.03851 
 140           140          -2.937858     -999          -2.937858
 150           140          -5.477575     -999          -5.477575
 160           140          -9.07117      -999          -9.07117 
 170           140          -15.15328     -999          -15.15328
 180           140          -999          -999          -999     
 0             150          -999          -999          -999     
 10            150          -15.15328     -999          -15.15328
 20            150          -9.07117      -999          -9.07117 
 30            150          -5.477575     -999          -5.477575
 40            150          -2.937858     -999          -2.937858
 50            150          -1.03851      -999          -1.03851 
 60            150           .375373      -999           .375373 
 70            150           1.365262     -999           1.365262
 80            150           1.954343     -999           1.954343
 90            150           2.150169     -999           2.150169
 100           150           1.954343     -999           1.954343
 110           150           1.365262     -999           1.365262
 120           150           .375373      -999           .375373 
 130           150          -1.03851      -999          -1.03851 
 140           150          -2.937858     -999          -2.937858
 150           150          -5.477575     -999          -5.477575
 160           150          -9.07117      -999          -9.07117 
 170           150          -15.15328     -999          -15.15328
 180           150          -999          -999          -999     
 0             160          -999          -999          -999     
 10            160          -15.15328     -999          -15.15328
 20            160          -9.07117      -999          -9.07117 
 30            160          -5.477575     -999          -5.477575
 40            160          -2.937858     -999          -2.937858
 50            160          -1.03851      -999          -1.03851 
 60            160           .375373      -999           .375373 
 70            160           1.365262     -999           1.365262
 80            160           1.954343     -999           1.954343
 90            160           2.150169     -999           2.150169
 100           160           1.954343     -999           1.954343
 110           160           1.365262     -999           1.365262
 120           160           .375373      -999           .375373 
 130           160          -1.03851      -999          -1.03851 
 140           160          -2.937858     -999          -2.937858
 150           160          -5.477575     -999          -5.477575
 160           160          -9.07117      -999          -9.07117 
 170           160          -15.15328     -999          -15.15328
 180           160          -999          -999          -999     
 0             170          -999          -999          -999     
 10            170          -15.15328     -999          -15.15328
 20            170          -9.07117      -999          -9.07117 
 30            170          -5.477575     -999          -5.477575
 40            170          -2.937858     -999          -2.937858
 50            170          -1.03851      -999          -1.03851 
 60            170           .375373      -999           .375373 
 70            170           1.365262     -999           1.365262
 80            170           1.954343     -999           1.954343
 90            170           2.150169     -999           2.150169
 100           170           1.954343     -999           1.954343
 110           170           1.365262     -999           1.365262
 120           170           .375373      -999           .375373 
 130           170          -1.03851      -999          -1.03851 
 140           170          -2.937858     -999          -2.937858
 150           170          -5.477575     -999          -5.477575
 160           170          -9.07117      -999          -9.07117 
 170           170          -15.15328     -999          -15.15328
 180           170          -999          -999          -999     
 0             180          -999          -999          -999     
 10            180          -15.15328     -999          -15.15328
 20            180          -9.07117      -999          -9.07117 
 30            180          -5.477575     -999          -5.477575
 40            180          -2.937858     -999          -2.937858
 50            180          -1.03851      -999          -1.03851 
 60            180           .375373      -999           .375373 
 70            180           1.365262     -999           1.365262
 80            180           1.954343     -999           1.954343
 90            180           2.150169     -999           2.150169
 100           180           1.954343     -999           1.954343
 110           180           1.365262     -999           1.365262
 120           180           .375373      -999           .375373 
 130           180          -1.03851      -999          -1.03851 
 140           180          -2.937858     -999          -2.937858
 150           180          -5.477575     -999          -5.477575
 160           180          -9.07117      -999          -9.07117 
 170           180          -15.15328     -999          -15.15328
 180           180          -999          -999          -999     
 0             190          -999          -999          -999     
 10            190          -15.15328     -999          -15.15328
 20            190          -9.07117      -999          -9.07117 
 30            190          -5.477575     -999          -5.477575
 40            190          -2.937858     -999          -2.937858
 50            190          -1.03851      -999          -1.03851 
 60            190           .375373      -999           .375373 
 70            190           1.365262     -999           1.365262
 80            190           1.954343     -999           1.954343
 90            190           2.150169     -999           2.150169
 100           190           1.954343     -999           1.954343
 110           190           1.365262     -999           1.365262
 120           190           .375373      -999           .375373 
 130           190          -1.03851      -999          -1.03851 
 140           190          -2.937858     -999          -2.937858
 150           190          -5.477575     -999          -5.477575
 160           190          -9.07117      -999          -9.07117 
 170           190          -15.15328     -999          -15.15328
 180           190          -999          -999          -999     
 0             200          -999          -999          -999     
 10            200          -15.15328     -999          -15.15328
 20            200          -9.07117      -999          -9.07117 
 30            200          -5.477575     -999          -5.477575
 40            200          -2.937858     -999          -2.937858
 50            200          -1.03851      -999          -1.03851 
 60            200           .375373      -999           .375373 
 70            200           1.365262     -999           1.365262
 80            200           1.954343     -999           1.954343
 90            200           2.150169     -999           2.150169
 100           200           1.954343     -999           1.954343
 110           200           1.365262     -999           1.365262
 120           200           .375373      -999           .375373 
 130           200          -1.03851      -999          -1.03851 
 140           200          -2.937858     -999          -2.937858
 150           200          -5.477575     -999          -5.477575
 160           200          -9.07117      -999          -9.07117 
 170           200          -15.15328     -999          -15.15328
 180           200          -999          -999          -999     
 0             210          -999          -999          -999     
 10            210          -15.15328     -999          -15.15328
 20            210          -9.07117      -999          -9.07117 
 30            210          -5.477575     -999          -5.477575
 40            210          -2.937858     -999          -2.937858
 50            210          -1.03851      -999          -1.03851 
 60            210           .375373      -999           .375373 
 70            210           1.365262     -999           1.365262
 80            210           1.954343     -999           1.954343
 90            210           2.150169     -999           2.150169
 100           210           1.954343     -999           1.954343
 110           210           1.365262     -999           1.365262
 120           210           .375373      -999           .375373 
 130           210          -1.03851      -999          -1.03851 
 140           210          -2.937858     -999          -2.937858
 150           210          -5.477575     -999          -5.477575
 160           210          -9.07117      -999          -9.07117 
 170           210          -15.15328     -999          -15.15328
 180           210          -999          -999          -999     
 0             220          -999          -999          -999     
 10            220          -15.15328     -999          -15.15328
 20            220          -9.07117      -999          -9.07117 
 30            220          -5.477575     -999          -5.477575
 40            220          -2.937858     -999          -2.937858
 50            220          -1.03851      -999          -1.03851 
 60            220           .375373      -999           .375373 
 70            220           1.365262     -999           1.365262
 80            220           1.954343     -999           1.954343
 90            220           2.150169     -999           2.150169
 100           220           1.954343     -999           1.954343
 110           220           1.365262     -999           1.365262
 120           220           .375373      -999           .375373 
 130           220          -1.03851      -999          -1.03851 
 140           220          -2.937858     -999          -2.937858
 150           220          -5.477575     -999          -5.477575
 160           220          -9.07117      -999          -9.07117 
 170           220          -15.15328     -999          -15.15328
 180           220          -999          -999          -999     
 0             230          -999          -999          -999     
 10            230          -15.15328     -999          -15.15328
 20            230          -9.07117      -999          -9.07117 
 30            230          -5.477575     -999          -5.477575
 40            230          -2.937858     -999          -2.937858
 50            230          -1.03851      -999          -1.03851 
 60            230           .375373      -999           .375373 
 70            230           1.365262     -999           1.365262
 80            230           1.954343     -999           1.954343
 90            230           2.150169     -999           2.150169
 100           230           1.954343     -999           1.954343
 110           230           1.365262     -999           1.365262
 120           230           .375373      -999           .375373 
 130           230          -1.03851      -999          -1.03851 
 140           230          -2.937858     -999          -2.937858
 150           230          -5.477575     -999          -5.477575
 160           230          -9.07117      -999          -9.07117 
 170           230          -15.15328     -999          -15.15328
 180           230          -999          -999          -999     
 0             240          -999          -999          -999     
 10            240          -15.15328     -999          -15.15328
 20            240          -9.07117      -999          -9.07117 
 30            240          -5.477575     -999          -5.477575
 40            240          -2.937858     -999          -2.937858
 50            240          -1.03851      -999          -1.03851 
 60            240           .375373      -999           .375373 
 70            240           1.365262     -999           1.365262
 80            240           1.954343     -999           1.954343
 90            240           2.150169     -999           2.150169
 100           240           1.954343     -999           1.954343
 110           240           1.365262     -999           1.365262
 120           240           .375373      -999           .375373 
 130           240          -1.03851      -999          -1.03851 
 140           240          -2.937858     -999          -2.937858
 150           240          -5.477575     -999          -5.477575
 160           240          -9.07117      -999          -9.07117 
 170           240          -15.15328     -999          -15.15328
 180           240          -999          -999          -999     
 0             250          -999          -999          -999     
 10            250          -15.15328     -999          -15.15328
 20            250          -9.07117      -999          -9.07117 
 30            250          -5.477575     -999          -5.477575
 40            250          -2.937858     -999          -2.937858
 50            250          -1.03851      -999          -1.03851 
 60            250           .375373      -999           .375373 
 70            250           1.365262     -999           1.365262
 80            250           1.954343     -999           1.954343
 90            250           2.150169     -999           2.150169
 100           250           1.954343     -999           1.954343
 110           250           1.365262     -999           1.365262
 120           250           .375373      -999           .375373 
 130           250          -1.03851      -999          -1.03851 
 140           250          -2.937858     -999          -2.937858
 150           250          -5.477575     -999          -5.477575
 160           250          -9.07117      -999          -9.07117 
 170           250          -15.15328     -999          -15.15328
 180           250          -999          -999          -999     
 0             260          -999          -999          -999     
 10            260          -15.15328     -999          -15.15328
 20            260          -9.07117      -999          -9.07117 
 30            260          -5.477575     -999          -5.477575
 40            260          -2.937858     -999          -2.937858
 50            260          -1.03851      -999          -1.03851 
 60            260           .375373      -999           .375373 
 70            260           1.365262     -999           1.365262
 80            260           1.954343     -999           1.954343
 90            260           2.150169     -999           2.150169
 100           260           1.954343     -999           1.954343
 110           260           1.365262     -999           1.365262
 120           260           .375373      -999           .375373 
 130           260          -1.03851      -999          -1.03851 
 140           260          -2.937858     -999          -2.937858
 150           260          -5.477575     -999          -5.477575
 160           260          -9.07117      -999          -9.07117 
 170           260          -15.15328     -999          -15.15328
 180           260          -999          -999          -999     
 0             270          -999          -999          -999     
 10            270          -15.15328     -999          -15.15328
 20            270          -9.07117      -999          -9.07117 
 30            270          -5.477575     -999          -5.477575
 40            270          -2.937858     -999          -2.937858
 50            270          -1.03851      -999          -1.03851 
 60            270           .375373      -999           .375373 
 70            270           1.365262     -999           1.365262
 80            270           1.954343     -999           1.954343
 90            270           2.150169     -999           2.150169
 100           270           1.954343     -999           1.954343
 110           270           1.365262     -999           1.365262
 120           270           .375373      -999           .375373 
 130           270          -1.03851      -999          -1.03851 
 140           270          -2.937858     -999          -2.937858
 150           270          -5.477575     -999          -5.477575
 160           270          -9.07117      -999          -9.07117 
 170           270          -15.15328     -999          -15.15328
 180           270          -999          -999          -999     
 0             280          -999          -999          -999     
 10            280          -15.15328     -999          -15.15328
 20            280          -9.07117      -999          -9.07117 
 30            280          -5.477575     -999          -5.477575
 40            280          -2.937858     -999          -2.937858
 50            280          -1.03851      -999          -1.03851 
 60            280           .375373      -999           .375373 
 70            280           1.365262     -999           1.365262
 80            280           1.954343     -999           1.954343
 90            280           2.150169     -999           2.150169
 100           280           1.954343     -999           1.954343
 110           280           1.365262     -999           1.365262
 120           280           .375373      -999           .375373 
 130           280          -1.03851      -999          -1.03851 
 140           280          -2.937858     -999          -2.937858
 150           280          -5.477575     -999          -5.477575
 160           280          -9.07117      -999          -9.07117 
 170           280          -15.15328     -999          -15.15328
 180           280          -999          -999          -999     
 0             290          -999          -999          -999     
 10            290          -15.15328     -999          -15.15328
 20            290          -9.07117      -999          -9.07117 
 30            290          -5.477575     -999          -5.477575
 40            290          -2.937858     -999          -2.937858
 50            290          -1.03851      -999          -1.03851 
 60            290           .375373      -999           .375373 
 70            290           1.365262     -999           1.365262
 80            290           1.954343     -999           1.954343
 90            290           2.150169     -999           2.150169
 100           290           1.954343     -999           1.954343
 110           290           1.365262     -999           1.365262
 120           290           .375373      -999           .375373 
 130           290          -1.03851      -999          -1.03851 
 140           290          -2.937858     -999          -2.937858
 150           290          -5.477575     -999          -5.477575
 160           290          -9.07117      -999          -9.07117 
 170           290          -15.15328     -999          -15.15328
 180           290          -999          -999          -999     
 0             300          -999          -999          -999     
 10            300          -15.15328     -999          -15.15328
 20            300          -9.07117      -999          -9.07117 
 30            300          -5.477575     -999          -5.477575
 40            300          -2.937858     -999          -2.937858
 50            300          -1.03851      -999          -1.03851 
 60            300           .375373      -999           .375373 
 70            300           1.365262     -999           1.365262
 80            300           1.954343     -999           1.954343
 90            300           2.150169     -999           2.150169
 100           300           1.954343     -999           1.954343
 110           300           1.365262     -999           1.365262
 120           300           .375373      -999           .375373 
 130           300          -1.03851      -999          -1.03851 
 140           300          -2.937858     -999          -2.937858
 150           300          -5.477575     -999          -5.477575
 160           300          -9.07117      -999          -9.07117 
 170           300          -15.15328     -999          -15.15328
 180           300          -999          -999          -999     
 0             310          -999          -999          -999     
 10            310          -15.15328     -999          -15.15328
 20            310          -9.07117      -999          -9.07117 
 30            310          -5.477575     -999          -5.477575
 40            310          -2.937858     -999          -2.937858
 50            310          -1.03851      -999          -1.03851 
 60            310           .375373      -999           .375373 
 70            310           1.365262     -999           1.365262
 80            310           1.954343     -999           1.954343
 90            310           2.150169     -999           2.150169
 100           310           1.954343     -999           1.954343
 110           310           1.365262     -999           1.365262
 120           310           .375373      -999           .375373 
 130           310          -1.03851      -999          -1.03851 
 140           310          -2.937858     -999          -2.937858
 150           310          -5.477575     -999          -5.477575
 160           310          -9.07117      -999          -9.07117 
 170           310          -15.15328     -999          -15.15328
 180           310          -999          -999          -999     
 0             320          -999          -999          -999     
 10            320          -15.15328     -999          -15.15328
 20            320          -9.07117      -999          -9.07117 
 30            320          -5.477575     -999          -5.477575
 40            320          -2.937858     -999          -2.937858
 50            320          -1.03851      -999          -1.03851 
 60            320           .375373      -999           .375373 
 70            320           1.365262     -999           1.365262
 80            320           1.954343     -999           1.954343
 90            320           2.150169     -999           2.150169
 100           320           1.954343     -999           1.954343
 110           320           1.365262     -999           1.365262
 120           320           .375373      -999           .375373 
 130           320          -1.03851      -999          -1.03851 
 140           320          -2.937858     -999          -2.937858
 150           320          -5.477575     -999          -5.477575
 160           320          -9.07117      -999          -9.07117 
 170           320          -15.15328     -999          -15.15328
 180           320          -999          -999          -999     
 0             330          -999          -999          -999     
 10            330          -15.15328     -999          -15.15328
 20            330          -9.07117      -999          -9.07117 
 30            330          -5.477575     -999          -5.477575
 40            330          -2.937858     -999          -2.937858
 50            330          -1.03851      -999          -1.03851 
 60            330           .375373      -999           .375373 
 70            330           1.365262     -999           1.365262
 80            330           1.954343     -999           1.954343
 90            330           2.150169     -999           2.150169
 100           330           1.954343     -999           1.954343
 110           330           1.365262     -999           1.365262
 120           330           .375373      -999           .375373 
 130           330          -1.03851      -999          -1.03851 
 140           330          -2.937858     -999          -2.937858
 150           330          -5.477575     -999          -5.477575
 160           330          -9.07117      -999          -9.07117 
 170           330          -15.15328     -999          -15.15328
 180           330          -999          -999          -999     
 0             340          -999          -999          -999     
 10            340          -15.15328     -999          -15.15328
 20            340          -9.07117      -999          -9.07117 
 30            340          -5.477575     -999          -5.477575
 40            340          -2.937858     -999          -2.937858
 50            340          -1.03851      -999          -1.03851 
 60            340           .375373      -999           .375373 
 70            340           1.365262     -999           1.365262
 80            340           1.954343     -999           1.954343
 90            340           2.150169     -999           2.150169
 100           340           1.954343     -999           1.954343
 110           340           1.365262     -999           1.365262
 120           340           .375373      -999           .375373 
 130           340          -1.03851      -999          -1.03851 
 140           340          -2.937858     -999          -2.937858
 150           340          -5.477575     -999          -5.477575
 160           340          -9.07117      -999          -9.07117 
 170           340          -15.15328     -999          -15.15328
 180           340          -999          -999          -999     
 0             350          -999          -999          -999     
 10            350          -15.15328     -999          -15.15328
 20            350          -9.07117      -999          -9.07117 
 30            350          -5.477575     -999          -5.477575
 40            350          -2.937858     -999          -2.937858
 50            350          -1.03851      -999          -1.03851 
 60            350           .375373      -999           .375373 
 70            350           1.365262     -999           1.365262
 80            350           1.954343     -999           1.954343
 90            350           2.150169     -999           2.150169
 100           350           1.954343     -999           1.954343
 110           350           1.365262     -999           1.365262
 120           350           .375373      -999           .375373 
 130           350          -1.03851      -999          -1.03851 
 140           350          -2.937858     -999          -2.937858
 150           350          -5.477575     -999          -5.477575
 160           350          -9.07117      -999          -9.07117 
 170           350          -15.15328     -999          -15.15328
 180           350          -999          -999          -999     
 0             360          -999          -999          -999     
 10            360          -15.15328     -999          -15.15328
 20            360          -9.07117      -999          -9.07117 
 30            360          -5.477575     -999          -5.477575
 40            360          -2.937858     -999          -2.937858
 50            360          -1.03851      -999          -1.03851 
 60            360           .375373      -999           .375373 
 70            360           1.365262     -999           1.365262
 80            360           1.954343     -999           1.954343
 90            360           2.150169     -999           2.150169
 100           360           1.954343     -999           1.954343
 110           360           1.365262     -999           1.365262
 120           360           .375373      -999           .375373 
 130           360          -1.03851      -999          -1.03851 
 140           360          -2.937858     -999          -2.937858
 150           360          -5.477575     -999          -5.477575
 160           360          -9.07117      -999          -9.07117 
 170           360          -15.15328     -999          -15.15328
 180           360          -999          -999          -999     
