                   ****************************************
                     MINI-NUMERICAL ELECTROMAGNETICS CODE
                                   MININEC
                   ****************************************

FREQUENCY (MHZ): 28.074
    WAVE LENGTH =  10.67892  METERS

ENVIRONMENT (+1 FOR FREE SPACE, -1 FOR GROUND PLANE): -1
 NUMBER OF MEDIA (0 FOR PERFECTLY CONDUCTING GROUND):  1
 RELATIVE DIELECTRIC CONSTANT, CONDUCTIVITY:  13 , .005

NO. OF WIRES: 1

WIRE NO. 1
            COORDINATES                                 END         NO. OF
   X             Y             Z          RADIUS     CONNECTION     SEGMENTS
 0             0             7.33                       0
 0             0             12.7          .01          0             10

                  **** ANTENNA GEOMETRY ****

WIRE NO.  1  COORDINATES                                CONNECTION PULSE
X             Y             Z             RADIUS        END1 END2  NO.
 0             0             7.867         .01           0    1   1
 0             0             8.404         .01           1    1   2
 0             0             8.941         .01           1    1   3
 0             0             9.478         .01           1    1   4
 0             0             10.015        .01           1    1   5
 0             0             10.552        .01           1    1   6
 0             0             11.089        .01           1    1   7
 0             0             11.626        .01           1    1   8
 0             0             12.163        .01           1    0   9

NO. OF SOURCES :  1
PULSE NO., VOLTAGE MAGNITUDE, PHASE (DEGREES):  5 , 1 , 0

********************    SOURCE DATA     ********************
PULSE  5      VOLTAGE = ( 1 , 0 J)
              CURRENT = ( 9.545567E-03 , -5.103541E-03 J)
              IMPEDANCE = (  81.47186 ,  43.55897 J)
              POWER =  4.772784E-03  WATTS
ZENITH ANGLE : INITIAL,INCREMENT,NUMBER:  0 , 10 , 10
AZIMUTH ANGLE: INITIAL,INCREMENT,NUMBER:  0 , 10 , 37

********************    PATTERN DATA    ********************
ZENITH        AZIMUTH       VERTICAL      HORIZONTAL    TOTAL
 ANGLE         ANGLE        PATTERN (DB)  PATTERN (DB)  PATTERN (DB)
 0             0            -999          -999          -999     
 10            0            -12.01028     -999          -12.01028
 20            0            -7.332716     -999          -7.332716
 30            0            -7.704027     -999          -7.704027
 40            0            -7.975059     -999          -7.975059
 50            0             .169747      -999           .169747 
 60            0             2.730598     -999           2.730598
 70            0             1.15556      -999           1.15556 
 80            0             2.563032     -999           2.563032
 90            0            -297.1699     -999          -297.1699
 0             10           -999          -999          -999     
 10            10           -12.01028     -999          -12.01028
 20            10           -7.332716     -999          -7.332716
 30            10           -7.704027     -999          -7.704027
 40            10           -7.975059     -999          -7.975059
 50            10            .169747      -999           .169747 
 60            10            2.730598     -999           2.730598
 70            10            1.15556      -999           1.15556 
 80            10            2.563032     -999           2.563032
 90            10           -297.1699     -999          -297.1699
 0             20           -999          -999          -999     
 10            20           -12.01028     -999          -12.01028
 20            20           -7.332716     -999          -7.332716
 30            20           -7.704027     -999          -7.704027
 40            20           -7.975059     -999          -7.975059
 50            20            .169747      -999           .169747 
 60            20            2.730598     -999           2.730598
 70            20            1.15556      -999           1.15556 
 80            20            2.563032     -999           2.563032
 90            20           -297.1699     -999          -297.1699
 0             30           -999          -999          -999     
 10            30           -12.01028     -999          -12.01028
 20            30           -7.332716     -999          -7.332716
 30            30           -7.704027     -999          -7.704027
 40            30           -7.975059     -999          -7.975059
 50            30            .169747      -999           .169747 
 60            30            2.730598     -999           2.730598
 70            30            1.15556      -999           1.15556 
 80            30            2.563032     -999           2.563032
 90            30           -297.1699     -999          -297.1699
 0             40           -999          -999          -999     
 10            40           -12.01028     -999          -12.01028
 20            40           -7.332716     -999          -7.332716
 30            40           -7.704027     -999          -7.704027
 40            40           -7.975059     -999          -7.975059
 50            40            .169747      -999           .169747 
 60            40            2.730598     -999           2.730598
 70            40            1.15556      -999           1.15556 
 80            40            2.563032     -999           2.563032
 90            40           -297.1699     -999          -297.1699
 0             50           -999          -999          -999     
 10            50           -12.01028     -999          -12.01028
 20            50           -7.332716     -999          -7.332716
 30            50           -7.704027     -999          -7.704027
 40            50           -7.975059     -999          -7.975059
 50            50            .169747      -999           .169747 
 60            50            2.730598     -999           2.730598
 70            50            1.15556      -999           1.15556 
 80            50            2.563032     -999           2.563032
 90            50           -297.1699     -999          -297.1699
 0             60           -999          -999          -999     
 10            60           -12.01028     -999          -12.01028
 20            60           -7.332716     -999          -7.332716
 30            60           -7.704027     -999          -7.704027
 40            60           -7.975059     -999          -7.975059
 50            60            .169747      -999           .169747 
 60            60            2.730598     -999           2.730598
 70            60            1.15556      -999           1.15556 
 80            60            2.563032     -999           2.563032
 90            60           -297.1699     -999          -297.1699
 0             70           -999          -999          -999     
 10            70           -12.01028     -999          -12.01028
 20            70           -7.332716     -999          -7.332716
 30            70           -7.704027     -999          -7.704027
 40            70           -7.975059     -999          -7.975059
 50            70            .169747      -999           .169747 
 60            70            2.730598     -999           2.730598
 70            70            1.15556      -999           1.15556 
 80            70            2.563032     -999           2.563032
 90            70           -297.1699     -999          -297.1699
 0             80           -999          -999          -999     
 10            80           -12.01028     -999          -12.01028
 20            80           -7.332716     -999          -7.332716
 30            80           -7.704027     -999          -7.704027
 40            80           -7.975059     -999          -7.975059
 50            80            .169747      -999           .169747 
 60            80            2.730598     -999           2.730598
 70            80            1.15556      -999           1.15556 
 80            80            2.563032     -999           2.563032
 90            80           -297.1699     -999          -297.1699
 0             90           -999          -999          -999     
 10            90           -12.01028     -999          -12.01028
 20            90           -7.332716     -999          -7.332716
 30            90           -7.704027     -999          -7.704027
 40            90           -7.975059     -999          -7.975059
 50            90            .169747      -999           .169747 
 60            90            2.730598     -999           2.730598
 70            90            1.15556      -999           1.15556 
 80            90            2.563032     -999           2.563032
 90            90           -297.1699     -999          -297.1699
 0             100          -999          -999          -999     
 10            100          -12.01028     -999          -12.01028
 20            100          -7.332716     -999          -7.332716
 30            100          -7.704027     -999          -7.704027
 40            100          -7.975059     -999          -7.975059
 50            100           .169747      -999           .169747 
 60            100           2.730598     -999           2.730598
 70            100           1.15556      -999           1.15556 
 80            100           2.563032     -999           2.563032
 90            100          -297.1699     -999          -297.1699
 0             110          -999          -999          -999     
 10            110          -12.01028     -999          -12.01028
 20            110          -7.332716     -999          -7.332716
 30            110          -7.704027     -999          -7.704027
 40            110          -7.975059     -999          -7.975059
 50            110           .169747      -999           .169747 
 60            110           2.730598     -999           2.730598
 70            110           1.15556      -999           1.15556 
 80            110           2.563032     -999           2.563032
 90            110          -297.1699     -999          -297.1699
 0             120          -999          -999          -999     
 10            120          -12.01028     -999          -12.01028
 20            120          -7.332716     -999          -7.332716
 30            120          -7.704027     -999          -7.704027
 40            120          -7.975059     -999          -7.975059
 50            120           .169747      -999           .169747 
 60            120           2.730598     -999           2.730598
 70            120           1.15556      -999           1.15556 
 80            120           2.563032     -999           2.563032
 90            120          -297.1699     -999          -297.1699
 0             130          -999          -999          -999     
 10            130          -12.01028     -999          -12.01028
 20            130          -7.332716     -999          -7.332716
 30            130          -7.704027     -999          -7.704027
 40            130          -7.975059     -999          -7.975059
 50            130           .169747      -999           .169747 
 60            130           2.730598     -999           2.730598
 70            130           1.15556      -999           1.15556 
 80            130           2.563032     -999           2.563032
 90            130          -297.1699     -999          -297.1699
 0             140          -999          -999          -999     
 10            140          -12.01028     -999          -12.01028
 20            140          -7.332716     -999          -7.332716
 30            140          -7.704027     -999          -7.704027
 40            140          -7.975059     -999          -7.975059
 50            140           .169747      -999           .169747 
 60            140           2.730598     -999           2.730598
 70            140           1.15556      -999           1.15556 
 80            140           2.563032     -999           2.563032
 90            140          -297.1699     -999          -297.1699
 0             150          -999          -999          -999     
 10            150          -12.01028     -999          -12.01028
 20            150          -7.332716     -999          -7.332716
 30            150          -7.704027     -999          -7.704027
 40            150          -7.975059     -999          -7.975059
 50            150           .169747      -999           .169747 
 60            150           2.730598     -999           2.730598
 70            150           1.15556      -999           1.15556 
 80            150           2.563032     -999           2.563032
 90            150          -297.1699     -999          -297.1699
 0             160          -999          -999          -999     
 10            160          -12.01028     -999          -12.01028
 20            160          -7.332716     -999          -7.332716
 30            160          -7.704027     -999          -7.704027
 40            160          -7.975059     -999          -7.975059
 50            160           .169747      -999           .169747 
 60            160           2.730598     -999           2.730598
 70            160           1.15556      -999           1.15556 
 80            160           2.563032     -999           2.563032
 90            160          -297.1699     -999          -297.1699
 0             170          -999          -999          -999     
 10            170          -12.01028     -999          -12.01028
 20            170          -7.332716     -999          -7.332716
 30            170          -7.704027     -999          -7.704027
 40            170          -7.975059     -999          -7.975059
 50            170           .169747      -999           .169747 
 60            170           2.730598     -999           2.730598
 70            170           1.15556      -999           1.15556 
 80            170           2.563032     -999           2.563032
 90            170          -297.1699     -999          -297.1699
 0             180          -999          -999          -999     
 10            180          -12.01028     -999          -12.01028
 20            180          -7.332716     -999          -7.332716
 30            180          -7.704027     -999          -7.704027
 40            180          -7.975059     -999          -7.975059
 50            180           .169747      -999           .169747 
 60            180           2.730598     -999           2.730598
 70            180           1.15556      -999           1.15556 
 80            180           2.563032     -999           2.563032
 90            180          -297.1699     -999          -297.1699
 0             190          -999          -999          -999     
 10            190          -12.01028     -999          -12.01028
 20            190          -7.332716     -999          -7.332716
 30            190          -7.704027     -999          -7.704027
 40            190          -7.975059     -999          -7.975059
 50            190           .169747      -999           .169747 
 60            190           2.730598     -999           2.730598
 70            190           1.15556      -999           1.15556 
 80            190           2.563032     -999           2.563032
 90            190          -297.1699     -999          -297.1699
 0             200          -999          -999          -999     
 10            200          -12.01028     -999          -12.01028
 20            200          -7.332716     -999          -7.332716
 30            200          -7.704027     -999          -7.704027
 40            200          -7.975059     -999          -7.975059
 50            200           .169747      -999           .169747 
 60            200           2.730598     -999           2.730598
 70            200           1.15556      -999           1.15556 
 80            200           2.563032     -999           2.563032
 90            200          -297.1699     -999          -297.1699
 0             210          -999          -999          -999     
 10            210          -12.01028     -999          -12.01028
 20            210          -7.332716     -999          -7.332716
 30            210          -7.704027     -999          -7.704027
 40            210          -7.975059     -999          -7.975059
 50            210           .169747      -999           .169747 
 60            210           2.730598     -999           2.730598
 70            210           1.15556      -999           1.15556 
 80            210           2.563032     -999           2.563032
 90            210          -297.1699     -999          -297.1699
 0             220          -999          -999          -999     
 10            220          -12.01028     -999          -12.01028
 20            220          -7.332716     -999          -7.332716
 30            220          -7.704027     -999          -7.704027
 40            220          -7.975059     -999          -7.975059
 50            220           .169747      -999           .169747 
 60            220           2.730598     -999           2.730598
 70            220           1.15556      -999           1.15556 
 80            220           2.563032     -999           2.563032
 90            220          -297.1699     -999          -297.1699
 0             230          -999          -999          -999     
 10            230          -12.01028     -999          -12.01028
 20            230          -7.332716     -999          -7.332716
 30            230          -7.704027     -999          -7.704027
 40            230          -7.975059     -999          -7.975059
 50            230           .169747      -999           .169747 
 60            230           2.730598     -999           2.730598
 70            230           1.15556      -999           1.15556 
 80            230           2.563032     -999           2.563032
 90            230          -297.1699     -999          -297.1699
 0             240          -999          -999          -999     
 10            240          -12.01028     -999          -12.01028
 20            240          -7.332716     -999          -7.332716
 30            240          -7.704027     -999          -7.704027
 40            240          -7.975059     -999          -7.975059
 50            240           .169747      -999           .169747 
 60            240           2.730598     -999           2.730598
 70            240           1.15556      -999           1.15556 
 80            240           2.563032     -999           2.563032
 90            240          -297.1699     -999          -297.1699
 0             250          -999          -999          -999     
 10            250          -12.01028     -999          -12.01028
 20            250          -7.332716     -999          -7.332716
 30            250          -7.704027     -999          -7.704027
 40            250          -7.975059     -999          -7.975059
 50            250           .169747      -999           .169747 
 60            250           2.730598     -999           2.730598
 70            250           1.15556      -999           1.15556 
 80            250           2.563032     -999           2.563032
 90            250          -297.1699     -999          -297.1699
 0             260          -999          -999          -999     
 10            260          -12.01028     -999          -12.01028
 20            260          -7.332716     -999          -7.332716
 30            260          -7.704027     -999          -7.704027
 40            260          -7.975059     -999          -7.975059
 50            260           .169747      -999           .169747 
 60            260           2.730598     -999           2.730598
 70            260           1.15556      -999           1.15556 
 80            260           2.563032     -999           2.563032
 90            260          -297.1699     -999          -297.1699
 0             270          -999          -999          -999     
 10            270          -12.01028     -999          -12.01028
 20            270          -7.332716     -999          -7.332716
 30            270          -7.704027     -999          -7.704027
 40            270          -7.975059     -999          -7.975059
 50            270           .169747      -999           .169747 
 60            270           2.730598     -999           2.730598
 70            270           1.15556      -999           1.15556 
 80            270           2.563032     -999           2.563032
 90            270          -297.1699     -999          -297.1699
 0             280          -999          -999          -999     
 10            280          -12.01028     -999          -12.01028
 20            280          -7.332716     -999          -7.332716
 30            280          -7.704027     -999          -7.704027
 40            280          -7.975059     -999          -7.975059
 50            280           .169747      -999           .169747 
 60            280           2.730598     -999           2.730598
 70            280           1.15556      -999           1.15556 
 80            280           2.563032     -999           2.563032
 90            280          -297.1699     -999          -297.1699
 0             290          -999          -999          -999     
 10            290          -12.01028     -999          -12.01028
 20            290          -7.332716     -999          -7.332716
 30            290          -7.704027     -999          -7.704027
 40            290          -7.975059     -999          -7.975059
 50            290           .169747      -999           .169747 
 60            290           2.730598     -999           2.730598
 70            290           1.15556      -999           1.15556 
 80            290           2.563032     -999           2.563032
 90            290          -297.1699     -999          -297.1699
 0             300          -999          -999          -999     
 10            300          -12.01028     -999          -12.01028
 20            300          -7.332716     -999          -7.332716
 30            300          -7.704027     -999          -7.704027
 40            300          -7.975059     -999          -7.975059
 50            300           .169747      -999           .169747 
 60            300           2.730598     -999           2.730598
 70            300           1.15556      -999           1.15556 
 80            300           2.563032     -999           2.563032
 90            300          -297.1699     -999          -297.1699
 0             310          -999          -999          -999     
 10            310          -12.01028     -999          -12.01028
 20            310          -7.332716     -999          -7.332716
 30            310          -7.704027     -999          -7.704027
 40            310          -7.975059     -999          -7.975059
 50            310           .169747      -999           .169747 
 60            310           2.730598     -999           2.730598
 70            310           1.15556      -999           1.15556 
 80            310           2.563032     -999           2.563032
 90            310          -297.1699     -999          -297.1699
 0             320          -999          -999          -999     
 10            320          -12.01028     -999          -12.01028
 20            320          -7.332716     -999          -7.332716
 30            320          -7.704027     -999          -7.704027
 40            320          -7.975059     -999          -7.975059
 50            320           .169747      -999           .169747 
 60            320           2.730598     -999           2.730598
 70            320           1.15556      -999           1.15556 
 80            320           2.563032     -999           2.563032
 90            320          -297.1699     -999          -297.1699
 0             330          -999          -999          -999     
 10            330          -12.01028     -999          -12.01028
 20            330          -7.332716     -999          -7.332716
 30            330          -7.704027     -999          -7.704027
 40            330          -7.975059     -999          -7.975059
 50            330           .169747      -999           .169747 
 60            330           2.730598     -999           2.730598
 70            330           1.15556      -999           1.15556 
 80            330           2.563032     -999           2.563032
 90            330          -297.1699     -999          -297.1699
 0             340          -999          -999          -999     
 10            340          -12.01028     -999          -12.01028
 20            340          -7.332716     -999          -7.332716
 30            340          -7.704027     -999          -7.704027
 40            340          -7.975059     -999          -7.975059
 50            340           .169747      -999           .169747 
 60            340           2.730598     -999           2.730598
 70            340           1.15556      -999           1.15556 
 80            340           2.563032     -999           2.563032
 90            340          -297.1699     -999          -297.1699
 0             350          -999          -999          -999     
 10            350          -12.01028     -999          -12.01028
 20            350          -7.332716     -999          -7.332716
 30            350          -7.704027     -999          -7.704027
 40            350          -7.975059     -999          -7.975059
 50            350           .169747      -999           .169747 
 60            350           2.730598     -999           2.730598
 70            350           1.15556      -999           1.15556 
 80            350           2.563032     -999           2.563032
 90            350          -297.1699     -999          -297.1699
 0             360          -999          -999          -999     
 10            360          -12.01028     -999          -12.01028
 20            360          -7.332716     -999          -7.332716
 30            360          -7.704027     -999          -7.704027
 40            360          -7.975059     -999          -7.975059
 50            360           .169747      -999           .169747 
 60            360           2.730598     -999           2.730598
 70            360           1.15556      -999           1.15556 
 80            360           2.563032     -999           2.563032
 90            360          -297.1699     -999          -297.1699
