                   ****************************************
                     MINI-NUMERICAL ELECTROMAGNETICS CODE
                                   MININEC
                       08-05-2022              11:04:53
                   ****************************************
 
FREQUENCY (MHZ): 7.15 
    WAVE LENGTH =  41.93007  METERS
 
ENVIRONMENT (+1 FOR FREE SPACE, -1 FOR GROUND PLANE): -1 
 NUMBER OF MEDIA (0 FOR PERFECTLY CONDUCTING GROUND):  0 
 
NO. OF WIRES: 1 
 
WIRE NO. 1 
            COORDINATES                                 END         NO. OF
   X             Y             Z          RADIUS     CONNECTION     SEGMENTS
 0             0             0                          -1 
 0             0             10.0838       .001          0             20 
 
                  **** ANTENNA GEOMETRY ****
 
WIRE NO.  1  COORDINATES                                CONNECTION PULSE
X             Y             Z             RADIUS        END1 END2  NO.
 0             0             0             .001          -1    1    1
 0             0             .5041901      .001           1    1    2
 0             0             1.00838       .001           1    1    3
 0             0             1.51257       .001           1    1    4
 0             0             2.01676       .001           1    1    5
 0             0             2.52095       .001           1    1    6
 0             0             3.02514       .001           1    1    7
 0             0             3.52933       .001           1    1    8
 0             0             4.03352       .001           1    1    9
 0             0             4.53771       .001           1    1   10
 0             0             5.0419        .001           1    1   11
 0             0             5.54609       .001           1    1   12
 0             0             6.05028       .001           1    1   13
 0             0             6.55447       .001           1    1   14
 0             0             7.05866       .001           1    1   15
 0             0             7.56285       .001           1    1   16
 0             0             8.067041      .001           1    1   17
 0             0             8.57123       .001           1    1   18
 0             0             9.07542       .001           1    1   19
 0             0             9.579611      .001           1    0   20
 
NO. OF SOURCES :  1 
PULSE NO., VOLTAGE MAGNITUDE, PHASE (DEGREES):  1 , 1 , 0 
NUMBER OF LOADS 1 
PULSE NO., ORDER OF S-PARAMETER FUNCTION:  1 , 1 
NUMERATOR, DENOMINATOR COEFFICIENTS OF S^ 0 : 0 , 1 
NUMERATOR, DENOMINATOR COEFFICIENTS OF S^ 1 : .225998 , 0 
 
********************    SOURCE DATA     ********************
PULSE  1      VOLTAGE = ( 1 , 0 J)
              CURRENT = ( 2.884724E-02 ,-1.326241E-06 J)
              IMPEDANCE = ( 34.66536 , 1.593726E-03 J)
              POWER =  1.442362E-02  WATTS
 
********************    CURRENT DATA    ********************
 
WIRE NO.  1 :
PULSE         REAL          IMAGINARY     MAGNITUDE     PHASE
 NO.          (AMPS)        (AMPS)        (AMPS)        (DEGREES)
 1             2.884724E-02 -1.326241E-06  2.884724E-02 -2.634151E-03 
 2             2.870482E-02 -2.018541E-04  2.870553E-02 -.4029009 
 3             2.840855E-02 -3.576205E-04  .0284108     -.7212289 
 4             2.795376E-02 -4.889888E-04  2.795804E-02 -1.00216 
 5             2.734144E-02 -5.999249E-04  2.734802E-02 -1.25698 
 6             2.657408E-02 -6.919127E-04  2.658309E-02 -1.491481 
 7             2.565527E-02 -7.656262E-04  2.566669E-02 -1.709361 
 8             2.458945E-02 -8.214165E-04  2.460317E-02 -1.913268 
 9             2.338182E-02 -8.595043E-04  2.339761E-02 -2.105217 
 10            2.203826E-02 -8.800681E-04  2.205582E-02 -2.286815 
 11            2.056523E-02 -8.832894E-04  2.058419E-02 -2.459378 
 12            1.896972E-02 -8.693757E-04  1.898963E-02 -2.624009 
 13            .0172591     -8.385695E-04  1.727946E-02 -2.781648 
 14            1.544093E-02 -7.911495E-04  1.546119E-02 -2.933108 
 15            1.352278E-02 -7.274219E-04  1.354232E-02 -3.079107 
 16            1.151179E-02 -6.476972E-04  .01153       -3.220283 
 17            9.414072E-03 -5.522457E-04  9.430254E-03 -3.357222 
 18            7.233317E-03 -4.412013E-04  7.24676E-03  -3.490472 
 19            4.967527E-03 -3.143239E-04  4.977461E-03 -3.620605 
 20            2.59803E-03  -1.702118E-04  2.603599E-03 -3.748418 
E              0             0             0             0 
 
********************    NEAR FIELDS     ********************
 
X-COORDINATE (M): INITIAL,INCREMENT,NUMBER : -1 , 1 , 3 
Y-COORDINATE (M): INITIAL,INCREMENT,NUMBER : -1 , 1 , 3 
Z-COORDINATE (M): INITIAL,INCREMENT,NUMBER :  0 , 1 , 2 
 
********************NEAR ELECTRIC FIELDS********************
         FIELD POINT: X = -1  Y = -1  Z =  0 
  VECTOR      REAL          IMAGINARY     MAGNITUDE     PHASE
 COMPONENT     V/M           V/M           V/M           DEG
   X           1.710994E-07  5.280212E-08  1.790616E-07  17.15048 
   Y           1.710994E-07  5.280212E-08  1.790616E-07  17.15048 
   Z          -.2080408      3.201949E-02  .2104904      171.2503 
   MAXIMUM OR PEAK FIELD =  .2104904  V/M 
 
********************NEAR ELECTRIC FIELDS********************
         FIELD POINT: X =  0  Y = -1  Z =  0 
  VECTOR      REAL          IMAGINARY     MAGNITUDE     PHASE
 COMPONENT     V/M           V/M           V/M           DEG
   X           0             0             0             0 
   Y          -5.332318E-09 -1.126021E-07  1.127282E-07 -92.71125 
   Z          -.24351        4.281685E-02  .2472456      170.0275 
   MAXIMUM OR PEAK FIELD =  .2472456  V/M 
 
********************NEAR ELECTRIC FIELDS********************
         FIELD POINT: X =  1  Y = -1  Z =  0 
  VECTOR      REAL          IMAGINARY     MAGNITUDE     PHASE
 COMPONENT     V/M           V/M           V/M           DEG
   X          -1.710994E-07 -5.280212E-08  1.790616E-07 -162.8495 
   Y           1.710994E-07  5.280212E-08  1.790616E-07  17.15048 
   Z          -.2080408      3.201949E-02  .2104904      171.2503 
   MAXIMUM OR PEAK FIELD =  .2104904  V/M 
 
********************NEAR ELECTRIC FIELDS********************
         FIELD POINT: X = -1  Y =  0  Z =  0 
  VECTOR      REAL          IMAGINARY     MAGNITUDE     PHASE
 COMPONENT     V/M           V/M           V/M           DEG
   X          -5.332318E-09 -1.126021E-07  1.127282E-07 -92.71125 
   Y           0             0             0             0 
   Z          -.24351        4.281685E-02  .2472456      170.0275 
   MAXIMUM OR PEAK FIELD =  .2472456  V/M 
 
********************NEAR ELECTRIC FIELDS********************
         FIELD POINT: X =  0  Y =  0  Z =  0 
  VECTOR      REAL          IMAGINARY     MAGNITUDE     PHASE
 COMPONENT     V/M           V/M           V/M           DEG
   X           0             0             0             0 
   Y           0             0             0             0 
   Z          -11.72898      6.845722      13.58061      149.7297 
   MAXIMUM OR PEAK FIELD =  13.58061  V/M 
 
********************NEAR ELECTRIC FIELDS********************
         FIELD POINT: X =  1  Y =  0  Z =  0 
  VECTOR      REAL          IMAGINARY     MAGNITUDE     PHASE
 COMPONENT     V/M           V/M           V/M           DEG
   X           5.332318E-09  1.126021E-07  1.127282E-07  87.28875 
   Y           0             0             0             0 
   Z          -.24351        4.281685E-02  .2472456      170.0275 
   MAXIMUM OR PEAK FIELD =  .2472456  V/M 
 
********************NEAR ELECTRIC FIELDS********************
         FIELD POINT: X = -1  Y =  1  Z =  0 
  VECTOR      REAL          IMAGINARY     MAGNITUDE     PHASE
 COMPONENT     V/M           V/M           V/M           DEG
   X           1.710994E-07  5.280212E-08  1.790616E-07  17.15048 
   Y          -1.710994E-07 -5.280212E-08  1.790616E-07 -162.8495 
   Z          -.2080408      3.201949E-02  .2104904      171.2503 
   MAXIMUM OR PEAK FIELD =  .2104904  V/M 
 
********************NEAR ELECTRIC FIELDS********************
         FIELD POINT: X =  0  Y =  1  Z =  0 
  VECTOR      REAL          IMAGINARY     MAGNITUDE     PHASE
 COMPONENT     V/M           V/M           V/M           DEG
   X           0             0             0             0 
   Y           5.332318E-09  1.126021E-07  1.127282E-07  87.28875 
   Z          -.24351        4.281685E-02  .2472456      170.0275 
   MAXIMUM OR PEAK FIELD =  .2472456  V/M 
 
********************NEAR ELECTRIC FIELDS********************
         FIELD POINT: X =  1  Y =  1  Z =  0 
  VECTOR      REAL          IMAGINARY     MAGNITUDE     PHASE
 COMPONENT     V/M           V/M           V/M           DEG
   X          -1.710994E-07 -5.280212E-08  1.790616E-07 -162.8495 
   Y          -1.710994E-07 -5.280212E-08  1.790616E-07 -162.8495 
   Z          -.2080408      3.201949E-02  .2104904      171.2503 
   MAXIMUM OR PEAK FIELD =  .2104904  V/M 
 
********************NEAR ELECTRIC FIELDS********************
         FIELD POINT: X = -1  Y = -1  Z =  1 
  VECTOR      REAL          IMAGINARY     MAGNITUDE     PHASE
 COMPONENT     V/M           V/M           V/M           DEG
   X          -.0272194      .1374807      .1401493      101.199 
   Y          -.0272194      .1374807      .1401493      101.199 
   Z          -.1883833      2.423317E-02  .1899355      172.6699 
   MAXIMUM OR PEAK FIELD =  .2230468  V/M 
 
********************NEAR ELECTRIC FIELDS********************
         FIELD POINT: X =  0  Y = -1  Z =  1 
  VECTOR      REAL          IMAGINARY     MAGNITUDE     PHASE
 COMPONENT     V/M           V/M           V/M           DEG
   X           0             0             0             0 
   Y          -7.358317E-02  .2826516      .2920726      104.592 
   Z          -.198186       2.756385E-02  .2000936      172.0821 
   MAXIMUM OR PEAK FIELD =  .3074058  V/M 
 
********************NEAR ELECTRIC FIELDS********************
         FIELD POINT: X =  1  Y = -1  Z =  1 
  VECTOR      REAL          IMAGINARY     MAGNITUDE     PHASE
 COMPONENT     V/M           V/M           V/M           DEG
   X           .0272194     -.1374807      .1401493     -78.80101 
   Y          -.0272194      .1374807      .1401493      101.199 
   Z          -.1883833      2.423317E-02  .1899355      172.6699 
   MAXIMUM OR PEAK FIELD =  .2230468  V/M 
 
********************NEAR ELECTRIC FIELDS********************
         FIELD POINT: X = -1  Y =  0  Z =  1 
  VECTOR      REAL          IMAGINARY     MAGNITUDE     PHASE
 COMPONENT     V/M           V/M           V/M           DEG
   X          -7.358317E-02  .2826516      .2920726      104.592 
   Y           0             0             0             0 
   Z          -.198186       2.756385E-02  .2000936      172.0821 
   MAXIMUM OR PEAK FIELD =  .3074058  V/M 
 
********************NEAR ELECTRIC FIELDS********************
         FIELD POINT: X =  0  Y =  0  Z =  1 
  VECTOR      REAL          IMAGINARY     MAGNITUDE     PHASE
 COMPONENT     V/M           V/M           V/M           DEG
   X           0             0             0             0 
   Y           0             0             0             0 
   Z          -9.705229      36.96375      38.21662      104.7116 
   MAXIMUM OR PEAK FIELD =  38.21662  V/M 
 
********************NEAR ELECTRIC FIELDS********************
         FIELD POINT: X =  1  Y =  0  Z =  1 
  VECTOR      REAL          IMAGINARY     MAGNITUDE     PHASE
 COMPONENT     V/M           V/M           V/M           DEG
   X           7.358317E-02 -.2826516      .2920726     -75.40798 
   Y           0             0             0             0 
   Z          -.198186       2.756385E-02  .2000936      172.0821 
   MAXIMUM OR PEAK FIELD =  .3074058  V/M 
 
********************NEAR ELECTRIC FIELDS********************
         FIELD POINT: X = -1  Y =  1  Z =  1 
  VECTOR      REAL          IMAGINARY     MAGNITUDE     PHASE
 COMPONENT     V/M           V/M           V/M           DEG
   X          -.0272194      .1374807      .1401493      101.199 
   Y           .0272194     -.1374807      .1401493     -78.80101 
   Z          -.1883833      2.423317E-02  .1899355      172.6699 
   MAXIMUM OR PEAK FIELD =  .2230468  V/M 
 
********************NEAR ELECTRIC FIELDS********************
         FIELD POINT: X =  0  Y =  1  Z =  1 
  VECTOR      REAL          IMAGINARY     MAGNITUDE     PHASE
 COMPONENT     V/M           V/M           V/M           DEG
   X           0             0             0             0 
   Y           7.358317E-02 -.2826516      .2920726     -75.40798 
   Z          -.198186       2.756385E-02  .2000936      172.0821 
   MAXIMUM OR PEAK FIELD =  .3074058  V/M 
 
********************NEAR ELECTRIC FIELDS********************
         FIELD POINT: X =  1  Y =  1  Z =  1 
  VECTOR      REAL          IMAGINARY     MAGNITUDE     PHASE
 COMPONENT     V/M           V/M           V/M           DEG
   X           .0272194     -.1374807      .1401493     -78.80101 
   Y           .0272194     -.1374807      .1401493     -78.80101 
   Z          -.1883833      2.423317E-02  .1899355      172.6699 
   MAXIMUM OR PEAK FIELD =  .2230468  V/M 
 
********************    NEAR FIELDS     ********************
 
X-COORDINATE (M): INITIAL,INCREMENT,NUMBER : -1 , 1 , 3 
Y-COORDINATE (M): INITIAL,INCREMENT,NUMBER : -1 , 1 , 3 
Z-COORDINATE (M): INITIAL,INCREMENT,NUMBER :  0 , 1 , 2 
 
********************NEAR MAGNETIC FIELDS********************
         FIELD POINT: X = -1  Y = -1  Z =  0 
  VECTOR      REAL          IMAGINARY     MAGNITUDE     PHASE
 COMPONENT     AMPS/M        AMPS/M        AMPS/M        DEG
   X           2.282605E-03 -6.063305E-05  2.283411E-03 -1.521595 
   Y          -2.282605E-03  6.063305E-05  2.283411E-03  178.4784 
   Z           0             0             0             0 
   MAXIMUM OR PEAK FIELD =  3.22923E-03  AMPS/M 
 
********************NEAR MAGNETIC FIELDS********************
         FIELD POINT: X =  0  Y = -1  Z =  0 
  VECTOR      REAL          IMAGINARY     MAGNITUDE     PHASE
 COMPONENT     AMPS/M        AMPS/M        AMPS/M        DEG
   X           4.573525E-03 -7.682355E-05  4.57417E-03  -.9623322 
   Y           0             0             0             0 
   Z           0             0             0             0 
   MAXIMUM OR PEAK FIELD =  4.574169E-03  AMPS/M 
 
********************NEAR MAGNETIC FIELDS********************
         FIELD POINT: X =  1  Y = -1  Z =  0 
  VECTOR      REAL          IMAGINARY     MAGNITUDE     PHASE
 COMPONENT     AMPS/M        AMPS/M        AMPS/M        DEG
   X           2.282605E-03 -6.063305E-05  2.283411E-03 -1.521595 
   Y           2.282605E-03 -6.063305E-05  2.283411E-03 -1.521595 
   Z           0             0             0             0 
   MAXIMUM OR PEAK FIELD =  3.22923E-03  AMPS/M 
 
********************NEAR MAGNETIC FIELDS********************
         FIELD POINT: X = -1  Y =  0  Z =  0 
  VECTOR      REAL          IMAGINARY     MAGNITUDE     PHASE
 COMPONENT     AMPS/M        AMPS/M        AMPS/M        DEG
   X           0             0             0             0 
   Y          -4.573525E-03  7.682355E-05  4.57417E-03   179.0377 
   Z           0             0             0             0 
   MAXIMUM OR PEAK FIELD =  4.574169E-03  AMPS/M 
 
********************NEAR MAGNETIC FIELDS********************
         FIELD POINT: X =  0  Y =  0  Z =  0 
  VECTOR      REAL          IMAGINARY     MAGNITUDE     PHASE
 COMPONENT     AMPS/M        AMPS/M        AMPS/M        DEG
   X           0             0             0             0 
   Y           0             0             0             0 
   Z           0             0             0             0 
   MAXIMUM OR PEAK FIELD =  0  AMPS/M 
 
********************NEAR MAGNETIC FIELDS********************
         FIELD POINT: X =  1  Y =  0  Z =  0 
  VECTOR      REAL          IMAGINARY     MAGNITUDE     PHASE
 COMPONENT     AMPS/M        AMPS/M        AMPS/M        DEG
   X           0             0             0             0 
   Y           4.573525E-03 -7.682355E-05  4.57417E-03  -.9623322 
   Z           0             0             0             0 
   MAXIMUM OR PEAK FIELD =  4.574169E-03  AMPS/M 
 
********************NEAR MAGNETIC FIELDS********************
         FIELD POINT: X = -1  Y =  1  Z =  0 
  VECTOR      REAL          IMAGINARY     MAGNITUDE     PHASE
 COMPONENT     AMPS/M        AMPS/M        AMPS/M        DEG
   X          -2.282605E-03  6.063305E-05  2.283411E-03  178.4784 
   Y          -2.282605E-03  6.063305E-05  2.283411E-03  178.4784 
   Z           0             0             0             0 
   MAXIMUM OR PEAK FIELD =  3.22923E-03  AMPS/M 
 
********************NEAR MAGNETIC FIELDS********************
         FIELD POINT: X =  0  Y =  1  Z =  0 
  VECTOR      REAL          IMAGINARY     MAGNITUDE     PHASE
 COMPONENT     AMPS/M        AMPS/M        AMPS/M        DEG
   X          -4.573525E-03  7.682355E-05  4.57417E-03   179.0377 
   Y           0             0             0             0 
   Z           0             0             0             0 
   MAXIMUM OR PEAK FIELD =  4.574169E-03  AMPS/M 
 
********************NEAR MAGNETIC FIELDS********************
         FIELD POINT: X =  1  Y =  1  Z =  0 
  VECTOR      REAL          IMAGINARY     MAGNITUDE     PHASE
 COMPONENT     AMPS/M        AMPS/M        AMPS/M        DEG
   X          -2.282605E-03  6.063305E-05  2.283411E-03  178.4784 
   Y           2.282605E-03 -6.063305E-05  2.283411E-03 -1.521595 
   Z           0             0             0             0 
   MAXIMUM OR PEAK FIELD =  3.22923E-03  AMPS/M 
 
********************NEAR MAGNETIC FIELDS********************
         FIELD POINT: X = -1  Y = -1  Z =  1 
  VECTOR      REAL          IMAGINARY     MAGNITUDE     PHASE
 COMPONENT     AMPS/M        AMPS/M        AMPS/M        DEG
   X           2.254947E-03 -6.703855E-05  2.255943E-03 -1.702876 
   Y          -2.254947E-03  6.703855E-05  2.255943E-03  178.2971 
   Z           0             0             0             0 
   MAXIMUM OR PEAK FIELD =  3.190385E-03  AMPS/M 
 
********************NEAR MAGNETIC FIELDS********************
         FIELD POINT: X =  0  Y = -1  Z =  1 
  VECTOR      REAL          IMAGINARY     MAGNITUDE     PHASE
 COMPONENT     AMPS/M        AMPS/M        AMPS/M        DEG
   X           4.516102E-03 -9.580672E-05  4.517118E-03 -1.215317 
   Y           0             0             0             0 
   Z           0             0             0             0 
   MAXIMUM OR PEAK FIELD =  4.517117E-03  AMPS/M 
 
********************NEAR MAGNETIC FIELDS********************
         FIELD POINT: X =  1  Y = -1  Z =  1 
  VECTOR      REAL          IMAGINARY     MAGNITUDE     PHASE
 COMPONENT     AMPS/M        AMPS/M        AMPS/M        DEG
   X           2.254947E-03 -6.703855E-05  2.255943E-03 -1.702876 
   Y           2.254947E-03 -6.703855E-05  2.255943E-03 -1.702876 
   Z           0             0             0             0 
   MAXIMUM OR PEAK FIELD =  3.190385E-03  AMPS/M 
 
********************NEAR MAGNETIC FIELDS********************
         FIELD POINT: X = -1  Y =  0  Z =  1 
  VECTOR      REAL          IMAGINARY     MAGNITUDE     PHASE
 COMPONENT     AMPS/M        AMPS/M        AMPS/M        DEG
   X           0             0             0             0 
   Y          -4.516102E-03  9.580672E-05  4.517118E-03  178.7847 
   Z           0             0             0             0 
   MAXIMUM OR PEAK FIELD =  4.517117E-03  AMPS/M 
 
********************NEAR MAGNETIC FIELDS********************
         FIELD POINT: X =  0  Y =  0  Z =  1 
  VECTOR      REAL          IMAGINARY     MAGNITUDE     PHASE
 COMPONENT     AMPS/M        AMPS/M        AMPS/M        DEG
   X           0             0             0             0 
   Y           0             0             0             0 
   Z           0             0             0             0 
   MAXIMUM OR PEAK FIELD =  0  AMPS/M 
 
********************NEAR MAGNETIC FIELDS********************
         FIELD POINT: X =  1  Y =  0  Z =  1 
  VECTOR      REAL          IMAGINARY     MAGNITUDE     PHASE
 COMPONENT     AMPS/M        AMPS/M        AMPS/M        DEG
   X           0             0             0             0 
   Y           4.516102E-03 -9.580672E-05  4.517118E-03 -1.215317 
   Z           0             0             0             0 
   MAXIMUM OR PEAK FIELD =  4.517117E-03  AMPS/M 
 
********************NEAR MAGNETIC FIELDS********************
         FIELD POINT: X = -1  Y =  1  Z =  1 
  VECTOR      REAL          IMAGINARY     MAGNITUDE     PHASE
 COMPONENT     AMPS/M        AMPS/M        AMPS/M        DEG
   X          -2.254947E-03  6.703855E-05  2.255943E-03  178.2971 
   Y          -2.254947E-03  6.703855E-05  2.255943E-03  178.2971 
   Z           0             0             0             0 
   MAXIMUM OR PEAK FIELD =  3.190385E-03  AMPS/M 
 
********************NEAR MAGNETIC FIELDS********************
         FIELD POINT: X =  0  Y =  1  Z =  1 
  VECTOR      REAL          IMAGINARY     MAGNITUDE     PHASE
 COMPONENT     AMPS/M        AMPS/M        AMPS/M        DEG
   X          -4.516102E-03  9.580672E-05  4.517118E-03  178.7847 
   Y           0             0             0             0 
   Z           0             0             0             0 
   MAXIMUM OR PEAK FIELD =  4.517117E-03  AMPS/M 
 
********************NEAR MAGNETIC FIELDS********************
         FIELD POINT: X =  1  Y =  1  Z =  1 
  VECTOR      REAL          IMAGINARY     MAGNITUDE     PHASE
 COMPONENT     AMPS/M        AMPS/M        AMPS/M        DEG
   X          -2.254947E-03  6.703855E-05  2.255943E-03  178.2971 
   Y           2.254947E-03 -6.703855E-05  2.255943E-03 -1.702876 
   Z           0             0             0             0 
   MAXIMUM OR PEAK FIELD =  3.190385E-03  AMPS/M 
