                   ****************************************
                     MINI-NUMERICAL ELECTROMAGNETICS CODE
                                   MININEC
                       07-02-2022              07:08:28
                   ****************************************
 
FREQUENCY (MHZ): 7.15 
    WAVE LENGTH =  41.93007  METERS
 
ENVIRONMENT (+1 FOR FREE SPACE, -1 FOR GROUND PLANE): -1 
 NUMBER OF MEDIA (0 FOR PERFECTLY CONDUCTING GROUND):  2 
 TYPE OF BOUNDARY (1-LINEAR, 2-CIRCULAR):  2 
 RELATIVE DIELECTRIC CONSTANT, CONDUCTIVITY:  20 , .0303 
 NUMBER OF RADIAL WIRES IN GROUND SCREEN:  16 
 RADIUS OF RADIAL WIRES:  .001 
 X OR R COORDINATE OF NEXT MEDIA INTERFACE:  5 
 RELATIVE DIELECTRIC CONSTANT, CONDUCTIVITY:  5 , .001 
 HEIGHT OF MEDIA: -5 
 
NO. OF WIRES: 1 
 
WIRE NO. 1 
            COORDINATES                                 END         NO. OF
   X             Y             Z          RADIUS     CONNECTION     SEGMENTS
 0             0             0                          -1 
 0             0             10.0838       .0127         0             20 
 
                  **** ANTENNA GEOMETRY ****
 
WIRE NO.  1  COORDINATES                                CONNECTION PULSE
X             Y             Z             RADIUS        END1 END2  NO.
 0             0             0             .0127         -1    1    1
 0             0             .5041901      .0127          1    1    2
 0             0             1.00838       .0127          1    1    3
 0             0             1.51257       .0127          1    1    4
 0             0             2.01676       .0127          1    1    5
 0             0             2.52095       .0127          1    1    6
 0             0             3.02514       .0127          1    1    7
 0             0             3.52933       .0127          1    1    8
 0             0             4.03352       .0127          1    1    9
 0             0             4.53771       .0127          1    1   10
 0             0             5.0419        .0127          1    1   11
 0             0             5.54609       .0127          1    1   12
 0             0             6.05028       .0127          1    1   13
 0             0             6.55447       .0127          1    1   14
 0             0             7.05866       .0127          1    1   15
 0             0             7.56285       .0127          1    1   16
 0             0             8.067041      .0127          1    1   17
 0             0             8.57123       .0127          1    1   18
 0             0             9.07542       .0127          1    1   19
 0             0             9.579611      .0127          1    0   20
 
NO. OF SOURCES :  1 
PULSE NO., VOLTAGE MAGNITUDE, PHASE (DEGREES):  1 , 1 , 0 
NUMBER OF LOADS 0 
 
FILL MATRIX  : 07:23:56
FACTOR MATRIX: 07:23:59
 
********************    SOURCE DATA     ********************
PULSE  1      VOLTAGE = ( 1 , 0 J)
              CURRENT = ( 2.790217E-02 , 5.958802E-04 J)
              IMPEDANCE = ( 35.82317 ,-.7650414 J)
              POWER =  1.395109E-02  WATTS
 
********************     FAR FIELD      ********************
 
ZENITH ANGLE : INITIAL,INCREMENT,NUMBER:  0 , 5 , 19 
AZIMUTH ANGLE: INITIAL,INCREMENT,NUMBER:  0 , 10 , 37 
 
 
FILENAME (NAME.OUT): VERTRAD.GNN
 
********************    PATTERN DATA    ********************
ZENITH        AZIMUTH       VERTICAL      HORIZONTAL    TOTAL
 ANGLE         ANGLE        PATTERN (DB)  PATTERN (DB)  PATTERN (DB)
 0             0            -999          -999          -999 
 5             0            -18.13454     -999          -18.13454 
 10            0            -12.19634     -999          -12.19634 
 15            0            -8.74313      -999          -8.74313 
 20            0            -6.300362     -999          -6.300362 
 25            0            -4.411899     -999          -4.411899 
 30            0            -2.940136     -999          -2.940136 
 35            0            -1.928246     -999          -1.928246 
 40            0            -1.338189     -999          -1.338189 
 45            0            -.8504032     -999          -.8504032 
 50            0            -.2888219     -999          -.2888219 
 55            0            -.1883984     -999          -.1883984 
 60            0             1.207417E-02 -999           1.207417E-02 
 65            0            -.0445131     -999          -.0445131 
 70            0            -.4757773     -999          -.4757773 
 75            0            -1.501257     -999          -1.501257 
 80            0            -3.598171     -999          -3.598171 
 85            0            -8.046273     -999          -8.046273 
 90            0            -23.20878     -999          -23.20878 
 0             10           -999          -999          -999 
 5             10           -18.13454     -999          -18.13454 
 10            10           -12.19634     -999          -12.19634 
 15            10           -8.74313      -999          -8.74313 
 20            10           -6.300362     -999          -6.300362 
 25            10           -4.411899     -999          -4.411899 
 30            10           -2.940136     -999          -2.940136 
 35            10           -1.928246     -999          -1.928246 
 40            10           -1.338189     -999          -1.338189 
 45            10           -.8504032     -999          -.8504032 
 50            10           -.2888219     -999          -.2888219 
 55            10           -.1883984     -999          -.1883984 
 60            10            1.207417E-02 -999           1.207417E-02 
 65            10           -.0445131     -999          -.0445131 
 70            10           -.4757773     -999          -.4757773 
 75            10           -1.501257     -999          -1.501257 
 80            10           -3.598171     -999          -3.598171 
 85            10           -8.046273     -999          -8.046273 
 90            10           -23.20878     -999          -23.20878 
 0             20           -999          -999          -999 
 5             20           -18.13454     -999          -18.13454 
 10            20           -12.19634     -999          -12.19634 
 15            20           -8.74313      -999          -8.74313 
 20            20           -6.300362     -999          -6.300362 
 25            20           -4.411899     -999          -4.411899 
 30            20           -2.940136     -999          -2.940136 
 35            20           -1.928246     -999          -1.928246 
 40            20           -1.338189     -999          -1.338189 
 45            20           -.8504032     -999          -.8504032 
 50            20           -.2888219     -999          -.2888219 
 55            20           -.1883984     -999          -.1883984 
 60            20            1.207417E-02 -999           1.207417E-02 
 65            20           -.0445131     -999          -.0445131 
 70            20           -.4757773     -999          -.4757773 
 75            20           -1.501257     -999          -1.501257 
 80            20           -3.598171     -999          -3.598171 
 85            20           -8.046273     -999          -8.046273 
 90            20           -23.20878     -999          -23.20878 
 0             30           -999          -999          -999 
 5             30           -18.13454     -999          -18.13454 
 10            30           -12.19634     -999          -12.19634 
 15            30           -8.74313      -999          -8.74313 
 20            30           -6.300362     -999          -6.300362 
 25            30           -4.411899     -999          -4.411899 
 30            30           -2.940136     -999          -2.940136 
 35            30           -1.928246     -999          -1.928246 
 40            30           -1.338189     -999          -1.338189 
 45            30           -.8504032     -999          -.8504032 
 50            30           -.2888219     -999          -.2888219 
 55            30           -.1883984     -999          -.1883984 
 60            30            1.207417E-02 -999           1.207417E-02 
 65            30           -.0445131     -999          -.0445131 
 70            30           -.4757773     -999          -.4757773 
 75            30           -1.501257     -999          -1.501257 
 80            30           -3.598171     -999          -3.598171 
 85            30           -8.046273     -999          -8.046273 
 90            30           -23.20878     -999          -23.20878 
 0             40           -999          -999          -999 
 5             40           -18.13454     -999          -18.13454 
 10            40           -12.19634     -999          -12.19634 
 15            40           -8.74313      -999          -8.74313 
 20            40           -6.300362     -999          -6.300362 
 25            40           -4.411899     -999          -4.411899 
 30            40           -2.940136     -999          -2.940136 
 35            40           -1.928246     -999          -1.928246 
 40            40           -1.338189     -999          -1.338189 
 45            40           -.8504032     -999          -.8504032 
 50            40           -.2888219     -999          -.2888219 
 55            40           -.1883984     -999          -.1883984 
 60            40            1.207417E-02 -999           1.207417E-02 
 65            40           -.0445131     -999          -.0445131 
 70            40           -.4757773     -999          -.4757773 
 75            40           -1.501257     -999          -1.501257 
 80            40           -3.598171     -999          -3.598171 
 85            40           -8.046273     -999          -8.046273 
 90            40           -23.20878     -999          -23.20878 
 0             50           -999          -999          -999 
 5             50           -18.13454     -999          -18.13454 
 10            50           -12.19634     -999          -12.19634 
 15            50           -8.74313      -999          -8.74313 
 20            50           -6.300362     -999          -6.300362 
 25            50           -4.411899     -999          -4.411899 
 30            50           -2.940136     -999          -2.940136 
 35            50           -1.928246     -999          -1.928246 
 40            50           -1.338189     -999          -1.338189 
 45            50           -.8504032     -999          -.8504032 
 50            50           -.2888219     -999          -.2888219 
 55            50           -.1883984     -999          -.1883984 
 60            50            1.207417E-02 -999           1.207417E-02 
 65            50           -.0445131     -999          -.0445131 
 70            50           -.4757773     -999          -.4757773 
 75            50           -1.501257     -999          -1.501257 
 80            50           -3.598171     -999          -3.598171 
 85            50           -8.046273     -999          -8.046273 
 90            50           -23.20878     -999          -23.20878 
 0             60           -999          -999          -999 
 5             60           -18.13454     -999          -18.13454 
 10            60           -12.19634     -999          -12.19634 
 15            60           -8.743128     -999          -8.743128 
 20            60           -6.300362     -999          -6.300362 
 25            60           -4.411899     -999          -4.411899 
 30            60           -2.940136     -999          -2.940136 
 35            60           -1.928246     -999          -1.928246 
 40            60           -1.338189     -999          -1.338189 
 45            60           -.8504032     -999          -.8504032 
 50            60           -.2888219     -999          -.2888219 
 55            60           -.1883984     -999          -.1883984 
 60            60            1.207417E-02 -999           1.207417E-02 
 65            60           -.0445131     -999          -.0445131 
 70            60           -.4757773     -999          -.4757773 
 75            60           -1.501257     -999          -1.501257 
 80            60           -3.598171     -999          -3.598171 
 85            60           -8.046273     -999          -8.046273 
 90            60           -23.20878     -999          -23.20878 
 0             70           -999          -999          -999 
 5             70           -18.13454     -999          -18.13454 
 10            70           -12.19634     -999          -12.19634 
 15            70           -8.74313      -999          -8.74313 
 20            70           -6.300362     -999          -6.300362 
 25            70           -4.411899     -999          -4.411899 
 30            70           -2.940136     -999          -2.940136 
 35            70           -1.928246     -999          -1.928246 
 40            70           -1.338189     -999          -1.338189 
 45            70           -.8504032     -999          -.8504032 
 50            70           -.2888219     -999          -.2888219 
 55            70           -.1883984     -999          -.1883984 
 60            70            1.207417E-02 -999           1.207417E-02 
 65            70           -.0445131     -999          -.0445131 
 70            70           -.4757773     -999          -.4757773 
 75            70           -1.501257     -999          -1.501257 
 80            70           -3.598171     -999          -3.598171 
 85            70           -8.046273     -999          -8.046273 
 90            70           -23.20878     -999          -23.20878 
 0             80           -999          -999          -999 
 5             80           -18.13454     -999          -18.13454 
 10            80           -12.19634     -999          -12.19634 
 15            80           -8.74313      -999          -8.74313 
 20            80           -6.300362     -999          -6.300362 
 25            80           -4.411899     -999          -4.411899 
 30            80           -2.940136     -999          -2.940136 
 35            80           -1.928246     -999          -1.928246 
 40            80           -1.338189     -999          -1.338189 
 45            80           -.8504032     -999          -.8504032 
 50            80           -.2888219     -999          -.2888219 
 55            80           -.1883984     -999          -.1883984 
 60            80            1.207417E-02 -999           1.207417E-02 
 65            80           -.0445131     -999          -.0445131 
 70            80           -.4757773     -999          -.4757773 
 75            80           -1.501257     -999          -1.501257 
 80            80           -3.598171     -999          -3.598171 
 85            80           -8.046273     -999          -8.046273 
 90            80           -23.20878     -999          -23.20878 
 0             90           -999          -999          -999 
 5             90           -18.13454     -999          -18.13454 
 10            90           -12.19634     -999          -12.19634 
 15            90           -8.743128     -999          -8.743128 
 20            90           -6.300362     -999          -6.300362 
 25            90           -4.411899     -999          -4.411899 
 30            90           -2.940136     -999          -2.940136 
 35            90           -1.928246     -999          -1.928246 
 40            90           -1.338189     -999          -1.338189 
 45            90           -.8504032     -999          -.8504032 
 50            90           -.2888219     -999          -.2888219 
 55            90           -.1883984     -999          -.1883984 
 60            90            1.207417E-02 -999           1.207417E-02 
 65            90           -.0445131     -999          -.0445131 
 70            90           -.4757773     -999          -.4757773 
 75            90           -1.501257     -999          -1.501257 
 80            90           -3.598171     -999          -3.598171 
 85            90           -8.046273     -999          -8.046273 
 90            90           -23.20878     -999          -23.20878 
 0             100          -999          -999          -999 
 5             100          -18.13454     -999          -18.13454 
 10            100          -12.19634     -999          -12.19634 
 15            100          -8.74313      -999          -8.74313 
 20            100          -6.300362     -999          -6.300362 
 25            100          -4.411899     -999          -4.411899 
 30            100          -2.940136     -999          -2.940136 
 35            100          -1.928246     -999          -1.928246 
 40            100          -1.338189     -999          -1.338189 
 45            100          -.8504032     -999          -.8504032 
 50            100          -.2888219     -999          -.2888219 
 55            100          -.1883984     -999          -.1883984 
 60            100           1.207417E-02 -999           1.207417E-02 
 65            100          -.0445131     -999          -.0445131 
 70            100          -.4757773     -999          -.4757773 
 75            100          -1.501257     -999          -1.501257 
 80            100          -3.598171     -999          -3.598171 
 85            100          -8.046273     -999          -8.046273 
 90            100          -23.20878     -999          -23.20878 
 0             110          -999          -999          -999 
 5             110          -18.13454     -999          -18.13454 
 10            110          -12.19634     -999          -12.19634 
 15            110          -8.74313      -999          -8.74313 
 20            110          -6.300362     -999          -6.300362 
 25            110          -4.411899     -999          -4.411899 
 30            110          -2.940136     -999          -2.940136 
 35            110          -1.928246     -999          -1.928246 
 40            110          -1.338189     -999          -1.338189 
 45            110          -.8504032     -999          -.8504032 
 50            110          -.2888219     -999          -.2888219 
 55            110          -.1883984     -999          -.1883984 
 60            110           1.207417E-02 -999           1.207417E-02 
 65            110          -.0445131     -999          -.0445131 
 70            110          -.4757773     -999          -.4757773 
 75            110          -1.501257     -999          -1.501257 
 80            110          -3.598171     -999          -3.598171 
 85            110          -8.046273     -999          -8.046273 
 90            110          -23.20878     -999          -23.20878 
 0             120          -999          -999          -999 
 5             120          -18.13454     -999          -18.13454 
 10            120          -12.19634     -999          -12.19634 
 15            120          -8.74313      -999          -8.74313 
 20            120          -6.300362     -999          -6.300362 
 25            120          -4.411899     -999          -4.411899 
 30            120          -2.940136     -999          -2.940136 
 35            120          -1.928246     -999          -1.928246 
 40            120          -1.338189     -999          -1.338189 
 45            120          -.8504032     -999          -.8504032 
 50            120          -.2888219     -999          -.2888219 
 55            120          -.1883984     -999          -.1883984 
 60            120           1.207417E-02 -999           1.207417E-02 
 65            120          -.0445131     -999          -.0445131 
 70            120          -.4757773     -999          -.4757773 
 75            120          -1.501257     -999          -1.501257 
 80            120          -3.598171     -999          -3.598171 
 85            120          -8.046273     -999          -8.046273 
 90            120          -23.20878     -999          -23.20878 
 0             130          -999          -999          -999 
 5             130          -18.13454     -999          -18.13454 
 10            130          -12.19634     -999          -12.19634 
 15            130          -8.74313      -999          -8.74313 
 20            130          -6.300362     -999          -6.300362 
 25            130          -4.411899     -999          -4.411899 
 30            130          -2.940136     -999          -2.940136 
 35            130          -1.928246     -999          -1.928246 
 40            130          -1.338189     -999          -1.338189 
 45            130          -.8504032     -999          -.8504032 
 50            130          -.2888219     -999          -.2888219 
 55            130          -.1883984     -999          -.1883984 
 60            130           1.207417E-02 -999           1.207417E-02 
 65            130          -.0445131     -999          -.0445131 
 70            130          -.4757773     -999          -.4757773 
 75            130          -1.501257     -999          -1.501257 
 80            130          -3.598171     -999          -3.598171 
 85            130          -8.046273     -999          -8.046273 
 90            130          -23.20878     -999          -23.20878 
 0             140          -999          -999          -999 
 5             140          -18.13454     -999          -18.13454 
 10            140          -12.19634     -999          -12.19634 
 15            140          -8.74313      -999          -8.74313 
 20            140          -6.300362     -999          -6.300362 
 25            140          -4.411899     -999          -4.411899 
 30            140          -2.940136     -999          -2.940136 
 35            140          -1.928246     -999          -1.928246 
 40            140          -1.338189     -999          -1.338189 
 45            140          -.8504032     -999          -.8504032 
 50            140          -.2888219     -999          -.2888219 
 55            140          -.1883984     -999          -.1883984 
 60            140           1.207417E-02 -999           1.207417E-02 
 65            140          -.0445131     -999          -.0445131 
 70            140          -.4757773     -999          -.4757773 
 75            140          -1.501257     -999          -1.501257 
 80            140          -3.598171     -999          -3.598171 
 85            140          -8.046273     -999          -8.046273 
 90            140          -23.20878     -999          -23.20878 
 0             150          -999          -999          -999 
 5             150          -18.13454     -999          -18.13454 
 10            150          -12.19634     -999          -12.19634 
 15            150          -8.74313      -999          -8.74313 
 20            150          -6.300362     -999          -6.300362 
 25            150          -4.411899     -999          -4.411899 
 30            150          -2.940136     -999          -2.940136 
 35            150          -1.928246     -999          -1.928246 
 40            150          -1.338189     -999          -1.338189 
 45            150          -.8504032     -999          -.8504032 
 50            150          -.2888219     -999          -.2888219 
 55            150          -.1883984     -999          -.1883984 
 60            150           1.207417E-02 -999           1.207417E-02 
 65            150          -.0445131     -999          -.0445131 
 70            150          -.4757773     -999          -.4757773 
 75            150          -1.501257     -999          -1.501257 
 80            150          -3.598171     -999          -3.598171 
 85            150          -8.046273     -999          -8.046273 
 90            150          -23.20878     -999          -23.20878 
 0             160          -999          -999          -999 
 5             160          -18.13454     -999          -18.13454 
 10            160          -12.19634     -999          -12.19634 
 15            160          -8.743128     -999          -8.743128 
 20            160          -6.300362     -999          -6.300362 
 25            160          -4.411899     -999          -4.411899 
 30            160          -2.940136     -999          -2.940136 
 35            160          -1.928246     -999          -1.928246 
 40            160          -1.338189     -999          -1.338189 
 45            160          -.8504032     -999          -.8504032 
 50            160          -.2888219     -999          -.2888219 
 55            160          -.1883984     -999          -.1883984 
 60            160           1.207417E-02 -999           1.207417E-02 
 65            160          -.0445131     -999          -.0445131 
 70            160          -.4757773     -999          -.4757773 
 75            160          -1.501257     -999          -1.501257 
 80            160          -3.598171     -999          -3.598171 
 85            160          -8.046273     -999          -8.046273 
 90            160          -23.20878     -999          -23.20878 
 0             170          -999          -999          -999 
 5             170          -18.13454     -999          -18.13454 
 10            170          -12.19634     -999          -12.19634 
 15            170          -8.74313      -999          -8.74313 
 20            170          -6.300362     -999          -6.300362 
 25            170          -4.411899     -999          -4.411899 
 30            170          -2.940136     -999          -2.940136 
 35            170          -1.928246     -999          -1.928246 
 40            170          -1.338189     -999          -1.338189 
 45            170          -.8504032     -999          -.8504032 
 50            170          -.2888219     -999          -.2888219 
 55            170          -.1883984     -999          -.1883984 
 60            170           1.207417E-02 -999           1.207417E-02 
 65            170          -.0445131     -999          -.0445131 
 70            170          -.4757773     -999          -.4757773 
 75            170          -1.501257     -999          -1.501257 
 80            170          -3.598171     -999          -3.598171 
 85            170          -8.046273     -999          -8.046273 
 90            170          -23.20878     -999          -23.20878 
 0             180          -999          -999          -999 
 5             180          -18.13454     -999          -18.13454 
 10            180          -12.19634     -999          -12.19634 
 15            180          -8.743128     -999          -8.743128 
 20            180          -6.300362     -999          -6.300362 
 25            180          -4.411899     -999          -4.411899 
 30            180          -2.940136     -999          -2.940136 
 35            180          -1.928246     -999          -1.928246 
 40            180          -1.338189     -999          -1.338189 
 45            180          -.8504032     -999          -.8504032 
 50            180          -.2888219     -999          -.2888219 
 55            180          -.1883984     -999          -.1883984 
 60            180           1.207417E-02 -999           1.207417E-02 
 65            180          -.0445131     -999          -.0445131 
 70            180          -.4757773     -999          -.4757773 
 75            180          -1.501257     -999          -1.501257 
 80            180          -3.598171     -999          -3.598171 
 85            180          -8.046273     -999          -8.046273 
 90            180          -23.20878     -999          -23.20878 
 0             190          -999          -999          -999 
 5             190          -18.13454     -999          -18.13454 
 10            190          -12.19634     -999          -12.19634 
 15            190          -8.74313      -999          -8.74313 
 20            190          -6.300362     -999          -6.300362 
 25            190          -4.411899     -999          -4.411899 
 30            190          -2.940136     -999          -2.940136 
 35            190          -1.928246     -999          -1.928246 
 40            190          -1.338189     -999          -1.338189 
 45            190          -.8504032     -999          -.8504032 
 50            190          -.2888219     -999          -.2888219 
 55            190          -.1883984     -999          -.1883984 
 60            190           1.207417E-02 -999           1.207417E-02 
 65            190          -.0445131     -999          -.0445131 
 70            190          -.4757773     -999          -.4757773 
 75            190          -1.501257     -999          -1.501257 
 80            190          -3.598171     -999          -3.598171 
 85            190          -8.046273     -999          -8.046273 
 90            190          -23.20878     -999          -23.20878 
 0             200          -999          -999          -999 
 5             200          -18.13454     -999          -18.13454 
 10            200          -12.19634     -999          -12.19634 
 15            200          -8.743128     -999          -8.743128 
 20            200          -6.300362     -999          -6.300362 
 25            200          -4.411899     -999          -4.411899 
 30            200          -2.940136     -999          -2.940136 
 35            200          -1.928246     -999          -1.928246 
 40            200          -1.338189     -999          -1.338189 
 45            200          -.8504032     -999          -.8504032 
 50            200          -.2888219     -999          -.2888219 
 55            200          -.1883984     -999          -.1883984 
 60            200           1.207417E-02 -999           1.207417E-02 
 65            200          -.0445131     -999          -.0445131 
 70            200          -.4757773     -999          -.4757773 
 75            200          -1.501257     -999          -1.501257 
 80            200          -3.598171     -999          -3.598171 
 85            200          -8.046273     -999          -8.046273 
 90            200          -23.20878     -999          -23.20878 
 0             210          -999          -999          -999 
 5             210          -18.13454     -999          -18.13454 
 10            210          -12.19634     -999          -12.19634 
 15            210          -8.743128     -999          -8.743128 
 20            210          -6.300362     -999          -6.300362 
 25            210          -4.411899     -999          -4.411899 
 30            210          -2.940136     -999          -2.940136 
 35            210          -1.928246     -999          -1.928246 
 40            210          -1.338189     -999          -1.338189 
 45            210          -.8504032     -999          -.8504032 
 50            210          -.2888219     -999          -.2888219 
 55            210          -.1883984     -999          -.1883984 
 60            210           1.207417E-02 -999           1.207417E-02 
 65            210          -.0445131     -999          -.0445131 
 70            210          -.4757773     -999          -.4757773 
 75            210          -1.501257     -999          -1.501257 
 80            210          -3.598171     -999          -3.598171 
 85            210          -8.046273     -999          -8.046273 
 90            210          -23.20878     -999          -23.20878 
 0             220          -999          -999          -999 
 5             220          -18.13454     -999          -18.13454 
 10            220          -12.19634     -999          -12.19634 
 15            220          -8.743128     -999          -8.743128 
 20            220          -6.300362     -999          -6.300362 
 25            220          -4.411899     -999          -4.411899 
 30            220          -2.940136     -999          -2.940136 
 35            220          -1.928246     -999          -1.928246 
 40            220          -1.338189     -999          -1.338189 
 45            220          -.8504032     -999          -.8504032 
 50            220          -.2888219     -999          -.2888219 
 55            220          -.1883984     -999          -.1883984 
 60            220           1.207417E-02 -999           1.207417E-02 
 65            220          -.0445131     -999          -.0445131 
 70            220          -.4757773     -999          -.4757773 
 75            220          -1.501255     -999          -1.501255 
 80            220          -3.598171     -999          -3.598171 
 85            220          -8.046273     -999          -8.046273 
 90            220          -23.20878     -999          -23.20878 
 0             230          -999          -999          -999 
 5             230          -18.13454     -999          -18.13454 
 10            230          -12.19634     -999          -12.19634 
 15            230          -8.74313      -999          -8.74313 
 20            230          -6.300362     -999          -6.300362 
 25            230          -4.411899     -999          -4.411899 
 30            230          -2.940136     -999          -2.940136 
 35            230          -1.928246     -999          -1.928246 
 40            230          -1.338189     -999          -1.338189 
 45            230          -.8504032     -999          -.8504032 
 50            230          -.2888219     -999          -.2888219 
 55            230          -.1883984     -999          -.1883984 
 60            230           1.207417E-02 -999           1.207417E-02 
 65            230          -.0445131     -999          -.0445131 
 70            230          -.4757773     -999          -.4757773 
 75            230          -1.501257     -999          -1.501257 
 80            230          -3.598171     -999          -3.598171 
 85            230          -8.046273     -999          -8.046273 
 90            230          -23.20878     -999          -23.20878 
 0             240          -999          -999          -999 
 5             240          -18.13454     -999          -18.13454 
 10            240          -12.19634     -999          -12.19634 
 15            240          -8.74313      -999          -8.74313 
 20            240          -6.300362     -999          -6.300362 
 25            240          -4.411899     -999          -4.411899 
 30            240          -2.940136     -999          -2.940136 
 35            240          -1.928246     -999          -1.928246 
 40            240          -1.338189     -999          -1.338189 
 45            240          -.8504032     -999          -.8504032 
 50            240          -.2888219     -999          -.2888219 
 55            240          -.1883984     -999          -.1883984 
 60            240           1.207417E-02 -999           1.207417E-02 
 65            240          -.0445131     -999          -.0445131 
 70            240          -.4757773     -999          -.4757773 
 75            240          -1.501257     -999          -1.501257 
 80            240          -3.598171     -999          -3.598171 
 85            240          -8.046273     -999          -8.046273 
 90            240          -23.20878     -999          -23.20878 
 0             250          -999          -999          -999 
 5             250          -18.13454     -999          -18.13454 
 10            250          -12.19634     -999          -12.19634 
 15            250          -8.74313      -999          -8.74313 
 20            250          -6.300362     -999          -6.300362 
 25            250          -4.411899     -999          -4.411899 
 30            250          -2.940136     -999          -2.940136 
 35            250          -1.928246     -999          -1.928246 
 40            250          -1.338189     -999          -1.338189 
 45            250          -.8504032     -999          -.8504032 
 50            250          -.2888219     -999          -.2888219 
 55            250          -.1883984     -999          -.1883984 
 60            250           1.207417E-02 -999           1.207417E-02 
 65            250          -.0445131     -999          -.0445131 
 70            250          -.4757773     -999          -.4757773 
 75            250          -1.501257     -999          -1.501257 
 80            250          -3.598171     -999          -3.598171 
 85            250          -8.046273     -999          -8.046273 
 90            250          -23.20878     -999          -23.20878 
 0             260          -999          -999          -999 
 5             260          -18.13454     -999          -18.13454 
 10            260          -12.19634     -999          -12.19634 
 15            260          -8.74313      -999          -8.74313 
 20            260          -6.300362     -999          -6.300362 
 25            260          -4.411899     -999          -4.411899 
 30            260          -2.940136     -999          -2.940136 
 35            260          -1.928246     -999          -1.928246 
 40            260          -1.338189     -999          -1.338189 
 45            260          -.8504032     -999          -.8504032 
 50            260          -.2888219     -999          -.2888219 
 55            260          -.1883984     -999          -.1883984 
 60            260           1.207417E-02 -999           1.207417E-02 
 65            260          -.0445131     -999          -.0445131 
 70            260          -.4757773     -999          -.4757773 
 75            260          -1.501257     -999          -1.501257 
 80            260          -3.598171     -999          -3.598171 
 85            260          -8.046273     -999          -8.046273 
 90            260          -23.20878     -999          -23.20878 
 0             270          -999          -999          -999 
 5             270          -18.13454     -999          -18.13454 
 10            270          -12.19634     -999          -12.19634 
 15            270          -8.743128     -999          -8.743128 
 20            270          -6.300362     -999          -6.300362 
 25            270          -4.411899     -999          -4.411899 
 30            270          -2.940136     -999          -2.940136 
 35            270          -1.928246     -999          -1.928246 
 40            270          -1.338189     -999          -1.338189 
 45            270          -.8504032     -999          -.8504032 
 50            270          -.2888219     -999          -.2888219 
 55            270          -.1883984     -999          -.1883984 
 60            270           1.207417E-02 -999           1.207417E-02 
 65            270          -.0445131     -999          -.0445131 
 70            270          -.4757773     -999          -.4757773 
 75            270          -1.501257     -999          -1.501257 
 80            270          -3.598171     -999          -3.598171 
 85            270          -8.046273     -999          -8.046273 
 90            270          -23.20878     -999          -23.20878 
 0             280          -999          -999          -999 
 5             280          -18.13454     -999          -18.13454 
 10            280          -12.19634     -999          -12.19634 
 15            280          -8.74313      -999          -8.74313 
 20            280          -6.300362     -999          -6.300362 
 25            280          -4.411899     -999          -4.411899 
 30            280          -2.940136     -999          -2.940136 
 35            280          -1.928246     -999          -1.928246 
 40            280          -1.338189     -999          -1.338189 
 45            280          -.8504032     -999          -.8504032 
 50            280          -.2888219     -999          -.2888219 
 55            280          -.1883984     -999          -.1883984 
 60            280           1.207417E-02 -999           1.207417E-02 
 65            280          -.0445131     -999          -.0445131 
 70            280          -.4757773     -999          -.4757773 
 75            280          -1.501257     -999          -1.501257 
 80            280          -3.598171     -999          -3.598171 
 85            280          -8.046273     -999          -8.046273 
 90            280          -23.20878     -999          -23.20878 
 0             290          -999          -999          -999 
 5             290          -18.13454     -999          -18.13454 
 10            290          -12.19634     -999          -12.19634 
 15            290          -8.74313      -999          -8.74313 
 20            290          -6.300362     -999          -6.300362 
 25            290          -4.411899     -999          -4.411899 
 30            290          -2.940136     -999          -2.940136 
 35            290          -1.928246     -999          -1.928246 
 40            290          -1.338189     -999          -1.338189 
 45            290          -.8504032     -999          -.8504032 
 50            290          -.2888219     -999          -.2888219 
 55            290          -.1883984     -999          -.1883984 
 60            290           1.207417E-02 -999           1.207417E-02 
 65            290          -.0445131     -999          -.0445131 
 70            290          -.4757773     -999          -.4757773 
 75            290          -1.501257     -999          -1.501257 
 80            290          -3.598171     -999          -3.598171 
 85            290          -8.046273     -999          -8.046273 
 90            290          -23.20878     -999          -23.20878 
 0             300          -999          -999          -999 
 5             300          -18.13454     -999          -18.13454 
 10            300          -12.19634     -999          -12.19634 
 15            300          -8.74313      -999          -8.74313 
 20            300          -6.300362     -999          -6.300362 
 25            300          -4.411899     -999          -4.411899 
 30            300          -2.940136     -999          -2.940136 
 35            300          -1.928246     -999          -1.928246 
 40            300          -1.338189     -999          -1.338189 
 45            300          -.8504032     -999          -.8504032 
 50            300          -.2888219     -999          -.2888219 
 55            300          -.1883984     -999          -.1883984 
 60            300           1.207417E-02 -999           1.207417E-02 
 65            300          -.0445131     -999          -.0445131 
 70            300          -.4757773     -999          -.4757773 
 75            300          -1.501257     -999          -1.501257 
 80            300          -3.598171     -999          -3.598171 
 85            300          -8.046273     -999          -8.046273 
 90            300          -23.20878     -999          -23.20878 
 0             310          -999          -999          -999 
 5             310          -18.13454     -999          -18.13454 
 10            310          -12.19634     -999          -12.19634 
 15            310          -8.74313      -999          -8.74313 
 20            310          -6.300362     -999          -6.300362 
 25            310          -4.411899     -999          -4.411899 
 30            310          -2.940136     -999          -2.940136 
 35            310          -1.928246     -999          -1.928246 
 40            310          -1.338189     -999          -1.338189 
 45            310          -.8504032     -999          -.8504032 
 50            310          -.2888219     -999          -.2888219 
 55            310          -.1883984     -999          -.1883984 
 60            310           1.207417E-02 -999           1.207417E-02 
 65            310          -.0445131     -999          -.0445131 
 70            310          -.4757773     -999          -.4757773 
 75            310          -1.501257     -999          -1.501257 
 80            310          -3.598171     -999          -3.598171 
 85            310          -8.046273     -999          -8.046273 
 90            310          -23.20878     -999          -23.20878 
 0             320          -999          -999          -999 
 5             320          -18.13454     -999          -18.13454 
 10            320          -12.19634     -999          -12.19634 
 15            320          -8.743128     -999          -8.743128 
 20            320          -6.300362     -999          -6.300362 
 25            320          -4.411899     -999          -4.411899 
 30            320          -2.940136     -999          -2.940136 
 35            320          -1.928246     -999          -1.928246 
 40            320          -1.338189     -999          -1.338189 
 45            320          -.8504032     -999          -.8504032 
 50            320          -.2888219     -999          -.2888219 
 55            320          -.1883984     -999          -.1883984 
 60            320           1.207417E-02 -999           1.207417E-02 
 65            320          -.0445131     -999          -.0445131 
 70            320          -.4757773     -999          -.4757773 
 75            320          -1.501257     -999          -1.501257 
 80            320          -3.598171     -999          -3.598171 
 85            320          -8.046273     -999          -8.046273 
 90            320          -23.20878     -999          -23.20878 
 0             330          -999          -999          -999 
 5             330          -18.13454     -999          -18.13454 
 10            330          -12.19634     -999          -12.19634 
 15            330          -8.743128     -999          -8.743128 
 20            330          -6.300362     -999          -6.300362 
 25            330          -4.411899     -999          -4.411899 
 30            330          -2.940136     -999          -2.940136 
 35            330          -1.928246     -999          -1.928246 
 40            330          -1.338189     -999          -1.338189 
 45            330          -.8504032     -999          -.8504032 
 50            330          -.2888219     -999          -.2888219 
 55            330          -.1883984     -999          -.1883984 
 60            330           1.207417E-02 -999           1.207417E-02 
 65            330          -.0445131     -999          -.0445131 
 70            330          -.4757773     -999          -.4757773 
 75            330          -1.501257     -999          -1.501257 
 80            330          -3.598171     -999          -3.598171 
 85            330          -8.046273     -999          -8.046273 
 90            330          -23.20878     -999          -23.20878 
 0             340          -999          -999          -999 
 5             340          -18.13454     -999          -18.13454 
 10            340          -12.19634     -999          -12.19634 
 15            340          -8.74313      -999          -8.74313 
 20            340          -6.300362     -999          -6.300362 
 25            340          -4.411899     -999          -4.411899 
 30            340          -2.940136     -999          -2.940136 
 35            340          -1.928246     -999          -1.928246 
 40            340          -1.338189     -999          -1.338189 
 45            340          -.8504032     -999          -.8504032 
 50            340          -.2888219     -999          -.2888219 
 55            340          -.1883984     -999          -.1883984 
 60            340           1.207417E-02 -999           1.207417E-02 
 65            340          -.0445131     -999          -.0445131 
 70            340          -.4757773     -999          -.4757773 
 75            340          -1.501257     -999          -1.501257 
 80            340          -3.598171     -999          -3.598171 
 85            340          -8.046273     -999          -8.046273 
 90            340          -23.20878     -999          -23.20878 
 0             350          -999          -999          -999 
 5             350          -18.13454     -999          -18.13454 
 10            350          -12.19634     -999          -12.19634 
 15            350          -8.743128     -999          -8.743128 
 20            350          -6.300362     -999          -6.300362 
 25            350          -4.411899     -999          -4.411899 
 30            350          -2.940136     -999          -2.940136 
 35            350          -1.928246     -999          -1.928246 
 40            350          -1.338189     -999          -1.338189 
 45            350          -.8504032     -999          -.8504032 
 50            350          -.2888219     -999          -.2888219 
 55            350          -.1883984     -999          -.1883984 
 60            350           1.207417E-02 -999           1.207417E-02 
 65            350          -.0445131     -999          -.0445131 
 70            350          -.4757773     -999          -.4757773 
 75            350          -1.501257     -999          -1.501257 
 80            350          -3.598171     -999          -3.598171 
 85            350          -8.046273     -999          -8.046273 
 90            350          -23.20878     -999          -23.20878 
 0             360          -999          -999          -999 
 5             360          -18.13454     -999          -18.13454 
 10            360          -12.19634     -999          -12.19634 
 15            360          -8.743128     -999          -8.743128 
 20            360          -6.300362     -999          -6.300362 
 25            360          -4.411899     -999          -4.411899 
 30            360          -2.940136     -999          -2.940136 
 35            360          -1.928246     -999          -1.928246 
 40            360          -1.338189     -999          -1.338189 
 45            360          -.8504032     -999          -.8504032 
 50            360          -.2888219     -999          -.2888219 
 55            360          -.1883984     -999          -.1883984 
 60            360           1.207417E-02 -999           1.207417E-02 
 65            360          -.0445131     -999          -.0445131 
 70            360          -.4757773     -999          -.4757773 
 75            360          -1.501257     -999          -1.501257 
 80            360          -3.598171     -999          -3.598171 
 85            360          -8.046273     -999          -8.046273 
 90            360          -23.20878     -999          -23.20878 
