                   ****************************************
                     MINI-NUMERICAL ELECTROMAGNETICS CODE
                                   MININEC
                       07-15-2022              17:10:13
                   ****************************************
 
FREQUENCY (MHZ): 7.15 
    WAVE LENGTH =  41.93007  METERS
 
ENVIRONMENT (+1 FOR FREE SPACE, -1 FOR GROUND PLANE): -1 
 NUMBER OF MEDIA (0 FOR PERFECTLY CONDUCTING GROUND):  0 
 
NO. OF WIRES: 1 
 
WIRE NO. 1 
            COORDINATES                                 END         NO. OF
   X             Y             Z          RADIUS     CONNECTION     SEGMENTS
 0             0             0                          -1 
 0             0             10.0838       .0127         0             20 
 
                  **** ANTENNA GEOMETRY ****
 
WIRE NO.  1  COORDINATES                                CONNECTION PULSE
X             Y             Z             RADIUS        END1 END2  NO.
 0             0             0             .0127         -1    1    1
 0             0             .5041901      .0127          1    1    2
 0             0             1.00838       .0127          1    1    3
 0             0             1.51257       .0127          1    1    4
 0             0             2.01676       .0127          1    1    5
 0             0             2.52095       .0127          1    1    6
 0             0             3.02514       .0127          1    1    7
 0             0             3.52933       .0127          1    1    8
 0             0             4.03352       .0127          1    1    9
 0             0             4.53771       .0127          1    1   10
 0             0             5.0419        .0127          1    1   11
 0             0             5.54609       .0127          1    1   12
 0             0             6.05028       .0127          1    1   13
 0             0             6.55447       .0127          1    1   14
 0             0             7.05866       .0127          1    1   15
 0             0             7.56285       .0127          1    1   16
 0             0             8.067041      .0127          1    1   17
 0             0             8.57123       .0127          1    1   18
 0             0             9.07542       .0127          1    1   19
 0             0             9.579611      .0127          1    0   20
 
NO. OF SOURCES :  1 
PULSE NO., VOLTAGE MAGNITUDE, PHASE (DEGREES):  1 , 1 , 0 
NUMBER OF LOADS 0 
 
********************    SOURCE DATA     ********************
PULSE  1      VOLTAGE = ( 1 , 0 J)
              CURRENT = ( 2.790217E-02 , 5.958802E-04 J)
              IMPEDANCE = ( 35.82317 ,-.7650414 J)
              POWER =  1.395109E-02  WATTS
 
********************    CURRENT DATA    ********************
 
WIRE NO.  1 :
PULSE         REAL          IMAGINARY     MAGNITUDE     PHASE
 NO.          (AMPS)        (AMPS)        (AMPS)        (DEGREES)
 1             2.790217E-02  5.958802E-04  2.790853E-02  1.223426 
 2             .0278231      2.427913E-04  2.782416E-02  .4999644 
 3             2.758626E-02 -4.932572E-06  2.758626E-02 -1.024479E-02 
 4             2.719281E-02 -2.120506E-04  2.719363E-02 -.4467857 
 5             2.664466E-02 -3.885666E-04  2.664749E-02 -.8355011 
 6             .0259445     -5.383639E-04  2.595008E-02 -1.188751 
 7             2.509567E-02 -6.632555E-04  2.510443E-02 -1.513923 
 8             2.410224E-02 -7.64194E-04   2.411435E-02 -1.816031 
 9             .0229689     -8.41731E-04   2.298432E-02 -2.098754 
 10            2.170088E-02 -8.962305E-04  2.171938E-02 -2.36493 
 11            2.030391E-02 -9.279712E-04  .0203251     -2.616829 
 12            1.878411E-02 -9.372033E-04  1.880747E-02 -2.856314 
 13            .0171478     -9.241748E-04  1.717269E-02 -3.084951 
 14            1.540138E-02 -8.891382E-04  1.542702E-02 -3.304081 
 15            1.355086E-02 -8.323375E-04  .0135764     -3.514875 
 16            .0116015     -7.539724E-04  1.162598E-02 -3.718377 
 17            9.556719E-03 -6.541184E-04  9.579077E-03 -3.915555 
 18            7.416087E-03 -5.325486E-04  7.435182E-03 -4.107355 
 19            5.170164E-03 -3.882799E-04  5.184723E-03 -4.294856 
 20            2.783606E-03 -2.18103E-04   2.792137E-03 -4.480125 
E              0             0             0             0 
 
********************     FAR FIELD      ********************
 
NEW POWER LEVEL =  100 
ZENITH ANGLE : INITIAL,INCREMENT,NUMBER:  0 , 5 , 19 
AZIMUTH ANGLE: INITIAL,INCREMENT,NUMBER:  0 , 10 , 37 
 
 
FILENAME (NAME.OUT): VERTIG.GNN
 
********************    PATTERN DATA    ********************
              RADIAL DISTANCE =  1000  METERS
              POWER LEVEL =  99.99999  WATTS
ZENITH   AZIMUTH                 E(THETA)                    E(PHI)
 ANGLE    ANGLE              MAG(V/M)    PHASE(DEG)      MAG(V/M)    PHASE(DEG)
  0.00      0.00            0.000E+00     0.00           0.000E+00     0.00
  5.00      0.00            9.688E-03    88.65           0.000E+00     0.00
 10.00      0.00            1.941E-02    88.65           0.000E+00     0.00
 15.00      0.00            2.918E-02    88.63           0.000E+00     0.00
 20.00      0.00            3.903E-02    88.61           0.000E+00     0.00
 25.00      0.00            4.893E-02    88.59           0.000E+00     0.00
 30.00      0.00            5.888E-02    88.56           0.000E+00     0.00
 35.00      0.00            6.881E-02    88.53           0.000E+00     0.00
 40.00      0.00            7.865E-02    88.50           0.000E+00     0.00
 45.00      0.00            8.828E-02    88.47           0.000E+00     0.00
 50.00      0.00            9.758E-02    88.44           0.000E+00     0.00
 55.00      0.00            1.064E-01    88.41           0.000E+00     0.00
 60.00      0.00            1.145E-01    88.38           0.000E+00     0.00
 65.00      0.00            1.218E-01    88.36           0.000E+00     0.00
 70.00      0.00            1.281E-01    88.34           0.000E+00     0.00
 75.00      0.00            1.332E-01    88.32           0.000E+00     0.00
 80.00      0.00            1.369E-01    88.31           0.000E+00     0.00
 85.00      0.00            1.392E-01    88.30           0.000E+00     0.00
 90.00      0.00            1.399E-01    88.30           0.000E+00     0.00
  0.00     10.00            0.000E+00     0.00           0.000E+00     0.00
  5.00     10.00            9.688E-03    88.65           0.000E+00     0.00
 10.00     10.00            1.941E-02    88.65           0.000E+00     0.00
 15.00     10.00            2.918E-02    88.63           0.000E+00     0.00
 20.00     10.00            3.903E-02    88.61           0.000E+00     0.00
 25.00     10.00            4.893E-02    88.59           0.000E+00     0.00
 30.00     10.00            5.888E-02    88.56           0.000E+00     0.00
 35.00     10.00            6.881E-02    88.53           0.000E+00     0.00
 40.00     10.00            7.865E-02    88.50           0.000E+00     0.00
 45.00     10.00            8.828E-02    88.47           0.000E+00     0.00
 50.00     10.00            9.758E-02    88.44           0.000E+00     0.00
 55.00     10.00            1.064E-01    88.41           0.000E+00     0.00
 60.00     10.00            1.145E-01    88.38           0.000E+00     0.00
 65.00     10.00            1.218E-01    88.36           0.000E+00     0.00
 70.00     10.00            1.281E-01    88.34           0.000E+00     0.00
 75.00     10.00            1.332E-01    88.32           0.000E+00     0.00
 80.00     10.00            1.369E-01    88.31           0.000E+00     0.00
 85.00     10.00            1.392E-01    88.30           0.000E+00     0.00
 90.00     10.00            1.399E-01    88.30           0.000E+00     0.00
  0.00     20.00            0.000E+00     0.00           0.000E+00     0.00
  5.00     20.00            9.688E-03    88.65           0.000E+00     0.00
 10.00     20.00            1.941E-02    88.65           0.000E+00     0.00
 15.00     20.00            2.918E-02    88.63           0.000E+00     0.00
 20.00     20.00            3.903E-02    88.61           0.000E+00     0.00
 25.00     20.00            4.893E-02    88.59           0.000E+00     0.00
 30.00     20.00            5.888E-02    88.56           0.000E+00     0.00
 35.00     20.00            6.881E-02    88.53           0.000E+00     0.00
 40.00     20.00            7.865E-02    88.50           0.000E+00     0.00
 45.00     20.00            8.828E-02    88.47           0.000E+00     0.00
 50.00     20.00            9.758E-02    88.44           0.000E+00     0.00
 55.00     20.00            1.064E-01    88.41           0.000E+00     0.00
 60.00     20.00            1.145E-01    88.38           0.000E+00     0.00
 65.00     20.00            1.218E-01    88.36           0.000E+00     0.00
 70.00     20.00            1.281E-01    88.34           0.000E+00     0.00
 75.00     20.00            1.332E-01    88.32           0.000E+00     0.00
 80.00     20.00            1.369E-01    88.31           0.000E+00     0.00
 85.00     20.00            1.392E-01    88.30           0.000E+00     0.00
 90.00     20.00            1.399E-01    88.30           0.000E+00     0.00
  0.00     30.00            0.000E+00     0.00           0.000E+00     0.00
  5.00     30.00            9.688E-03    88.65           0.000E+00     0.00
 10.00     30.00            1.941E-02    88.65           0.000E+00     0.00
 15.00     30.00            2.918E-02    88.63           0.000E+00     0.00
 20.00     30.00            3.903E-02    88.61           0.000E+00     0.00
 25.00     30.00            4.893E-02    88.59           0.000E+00     0.00
 30.00     30.00            5.888E-02    88.56           0.000E+00     0.00
 35.00     30.00            6.881E-02    88.53           0.000E+00     0.00
 40.00     30.00            7.865E-02    88.50           0.000E+00     0.00
 45.00     30.00            8.828E-02    88.47           0.000E+00     0.00
 50.00     30.00            9.758E-02    88.44           0.000E+00     0.00
 55.00     30.00            1.064E-01    88.41           0.000E+00     0.00
 60.00     30.00            1.145E-01    88.38           0.000E+00     0.00
 65.00     30.00            1.218E-01    88.36           0.000E+00     0.00
 70.00     30.00            1.281E-01    88.34           0.000E+00     0.00
 75.00     30.00            1.332E-01    88.32           0.000E+00     0.00
 80.00     30.00            1.369E-01    88.31           0.000E+00     0.00
 85.00     30.00            1.392E-01    88.30           0.000E+00     0.00
 90.00     30.00            1.399E-01    88.30           0.000E+00     0.00
  0.00     40.00            0.000E+00     0.00           0.000E+00     0.00
  5.00     40.00            9.688E-03    88.65           0.000E+00     0.00
 10.00     40.00            1.941E-02    88.65           0.000E+00     0.00
 15.00     40.00            2.918E-02    88.63           0.000E+00     0.00
 20.00     40.00            3.903E-02    88.61           0.000E+00     0.00
 25.00     40.00            4.893E-02    88.59           0.000E+00     0.00
 30.00     40.00            5.888E-02    88.56           0.000E+00     0.00
 35.00     40.00            6.881E-02    88.53           0.000E+00     0.00
 40.00     40.00            7.865E-02    88.50           0.000E+00     0.00
 45.00     40.00            8.828E-02    88.47           0.000E+00     0.00
 50.00     40.00            9.758E-02    88.44           0.000E+00     0.00
 55.00     40.00            1.064E-01    88.41           0.000E+00     0.00
 60.00     40.00            1.145E-01    88.38           0.000E+00     0.00
 65.00     40.00            1.218E-01    88.36           0.000E+00     0.00
 70.00     40.00            1.281E-01    88.34           0.000E+00     0.00
 75.00     40.00            1.332E-01    88.32           0.000E+00     0.00
 80.00     40.00            1.369E-01    88.31           0.000E+00     0.00
 85.00     40.00            1.392E-01    88.30           0.000E+00     0.00
 90.00     40.00            1.399E-01    88.30           0.000E+00     0.00
  0.00     50.00            0.000E+00     0.00           0.000E+00     0.00
  5.00     50.00            9.688E-03    88.65           0.000E+00     0.00
 10.00     50.00            1.941E-02    88.65           0.000E+00     0.00
 15.00     50.00            2.918E-02    88.63           0.000E+00     0.00
 20.00     50.00            3.903E-02    88.61           0.000E+00     0.00
 25.00     50.00            4.893E-02    88.59           0.000E+00     0.00
 30.00     50.00            5.888E-02    88.56           0.000E+00     0.00
 35.00     50.00            6.881E-02    88.53           0.000E+00     0.00
 40.00     50.00            7.865E-02    88.50           0.000E+00     0.00
 45.00     50.00            8.828E-02    88.47           0.000E+00     0.00
 50.00     50.00            9.758E-02    88.44           0.000E+00     0.00
 55.00     50.00            1.064E-01    88.41           0.000E+00     0.00
 60.00     50.00            1.145E-01    88.38           0.000E+00     0.00
 65.00     50.00            1.218E-01    88.36           0.000E+00     0.00
 70.00     50.00            1.281E-01    88.34           0.000E+00     0.00
 75.00     50.00            1.332E-01    88.32           0.000E+00     0.00
 80.00     50.00            1.369E-01    88.31           0.000E+00     0.00
 85.00     50.00            1.392E-01    88.30           0.000E+00     0.00
 90.00     50.00            1.399E-01    88.30           0.000E+00     0.00
  0.00     60.00            0.000E+00     0.00           0.000E+00     0.00
  5.00     60.00            9.688E-03    88.65           0.000E+00     0.00
 10.00     60.00            1.941E-02    88.65           0.000E+00     0.00
 15.00     60.00            2.918E-02    88.63           0.000E+00     0.00
 20.00     60.00            3.903E-02    88.61           0.000E+00     0.00
 25.00     60.00            4.893E-02    88.59           0.000E+00     0.00
 30.00     60.00            5.888E-02    88.56           0.000E+00     0.00
 35.00     60.00            6.881E-02    88.53           0.000E+00     0.00
 40.00     60.00            7.865E-02    88.50           0.000E+00     0.00
 45.00     60.00            8.828E-02    88.47           0.000E+00     0.00
 50.00     60.00            9.758E-02    88.44           0.000E+00     0.00
 55.00     60.00            1.064E-01    88.41           0.000E+00     0.00
 60.00     60.00            1.145E-01    88.38           0.000E+00     0.00
 65.00     60.00            1.218E-01    88.36           0.000E+00     0.00
 70.00     60.00            1.281E-01    88.34           0.000E+00     0.00
 75.00     60.00            1.332E-01    88.32           0.000E+00     0.00
 80.00     60.00            1.369E-01    88.31           0.000E+00     0.00
 85.00     60.00            1.392E-01    88.30           0.000E+00     0.00
 90.00     60.00            1.399E-01    88.30           0.000E+00     0.00
  0.00     70.00            0.000E+00     0.00           0.000E+00     0.00
  5.00     70.00            9.688E-03    88.65           0.000E+00     0.00
 10.00     70.00            1.941E-02    88.65           0.000E+00     0.00
 15.00     70.00            2.918E-02    88.63           0.000E+00     0.00
 20.00     70.00            3.903E-02    88.61           0.000E+00     0.00
 25.00     70.00            4.893E-02    88.59           0.000E+00     0.00
 30.00     70.00            5.888E-02    88.56           0.000E+00     0.00
 35.00     70.00            6.881E-02    88.53           0.000E+00     0.00
 40.00     70.00            7.865E-02    88.50           0.000E+00     0.00
 45.00     70.00            8.828E-02    88.47           0.000E+00     0.00
 50.00     70.00            9.758E-02    88.44           0.000E+00     0.00
 55.00     70.00            1.064E-01    88.41           0.000E+00     0.00
 60.00     70.00            1.145E-01    88.38           0.000E+00     0.00
 65.00     70.00            1.218E-01    88.36           0.000E+00     0.00
 70.00     70.00            1.281E-01    88.34           0.000E+00     0.00
 75.00     70.00            1.332E-01    88.32           0.000E+00     0.00
 80.00     70.00            1.369E-01    88.31           0.000E+00     0.00
 85.00     70.00            1.392E-01    88.30           0.000E+00     0.00
 90.00     70.00            1.399E-01    88.30           0.000E+00     0.00
  0.00     80.00            0.000E+00     0.00           0.000E+00     0.00
  5.00     80.00            9.688E-03    88.65           0.000E+00     0.00
 10.00     80.00            1.941E-02    88.65           0.000E+00     0.00
 15.00     80.00            2.918E-02    88.63           0.000E+00     0.00
 20.00     80.00            3.903E-02    88.61           0.000E+00     0.00
 25.00     80.00            4.893E-02    88.59           0.000E+00     0.00
 30.00     80.00            5.888E-02    88.56           0.000E+00     0.00
 35.00     80.00            6.881E-02    88.53           0.000E+00     0.00
 40.00     80.00            7.865E-02    88.50           0.000E+00     0.00
 45.00     80.00            8.828E-02    88.47           0.000E+00     0.00
 50.00     80.00            9.758E-02    88.44           0.000E+00     0.00
 55.00     80.00            1.064E-01    88.41           0.000E+00     0.00
 60.00     80.00            1.145E-01    88.38           0.000E+00     0.00
 65.00     80.00            1.218E-01    88.36           0.000E+00     0.00
 70.00     80.00            1.281E-01    88.34           0.000E+00     0.00
 75.00     80.00            1.332E-01    88.32           0.000E+00     0.00
 80.00     80.00            1.369E-01    88.31           0.000E+00     0.00
 85.00     80.00            1.392E-01    88.30           0.000E+00     0.00
 90.00     80.00            1.399E-01    88.30           0.000E+00     0.00
  0.00     90.00            0.000E+00     0.00           0.000E+00     0.00
  5.00     90.00            9.688E-03    88.65           0.000E+00     0.00
 10.00     90.00            1.941E-02    88.65           0.000E+00     0.00
 15.00     90.00            2.918E-02    88.63           0.000E+00     0.00
 20.00     90.00            3.903E-02    88.61           0.000E+00     0.00
 25.00     90.00            4.893E-02    88.59           0.000E+00     0.00
 30.00     90.00            5.888E-02    88.56           0.000E+00     0.00
 35.00     90.00            6.881E-02    88.53           0.000E+00     0.00
 40.00     90.00            7.865E-02    88.50           0.000E+00     0.00
 45.00     90.00            8.828E-02    88.47           0.000E+00     0.00
 50.00     90.00            9.758E-02    88.44           0.000E+00     0.00
 55.00     90.00            1.064E-01    88.41           0.000E+00     0.00
 60.00     90.00            1.145E-01    88.38           0.000E+00     0.00
 65.00     90.00            1.218E-01    88.36           0.000E+00     0.00
 70.00     90.00            1.281E-01    88.34           0.000E+00     0.00
 75.00     90.00            1.332E-01    88.32           0.000E+00     0.00
 80.00     90.00            1.369E-01    88.31           0.000E+00     0.00
 85.00     90.00            1.392E-01    88.30           0.000E+00     0.00
 90.00     90.00            1.399E-01    88.30           0.000E+00     0.00
  0.00    100.00            0.000E+00     0.00           0.000E+00     0.00
  5.00    100.00            9.688E-03    88.65           0.000E+00     0.00
 10.00    100.00            1.941E-02    88.65           0.000E+00     0.00
 15.00    100.00            2.918E-02    88.63           0.000E+00     0.00
 20.00    100.00            3.903E-02    88.61           0.000E+00     0.00
 25.00    100.00            4.893E-02    88.59           0.000E+00     0.00
 30.00    100.00            5.888E-02    88.56           0.000E+00     0.00
 35.00    100.00            6.881E-02    88.53           0.000E+00     0.00
 40.00    100.00            7.865E-02    88.50           0.000E+00     0.00
 45.00    100.00            8.828E-02    88.47           0.000E+00     0.00
 50.00    100.00            9.758E-02    88.44           0.000E+00     0.00
 55.00    100.00            1.064E-01    88.41           0.000E+00     0.00
 60.00    100.00            1.145E-01    88.38           0.000E+00     0.00
 65.00    100.00            1.218E-01    88.36           0.000E+00     0.00
 70.00    100.00            1.281E-01    88.34           0.000E+00     0.00
 75.00    100.00            1.332E-01    88.32           0.000E+00     0.00
 80.00    100.00            1.369E-01    88.31           0.000E+00     0.00
 85.00    100.00            1.392E-01    88.30           0.000E+00     0.00
 90.00    100.00            1.399E-01    88.30           0.000E+00     0.00
  0.00    110.00            0.000E+00     0.00           0.000E+00     0.00
  5.00    110.00            9.688E-03    88.65           0.000E+00     0.00
 10.00    110.00            1.941E-02    88.65           0.000E+00     0.00
 15.00    110.00            2.918E-02    88.63           0.000E+00     0.00
 20.00    110.00            3.903E-02    88.61           0.000E+00     0.00
 25.00    110.00            4.893E-02    88.59           0.000E+00     0.00
 30.00    110.00            5.888E-02    88.56           0.000E+00     0.00
 35.00    110.00            6.881E-02    88.53           0.000E+00     0.00
 40.00    110.00            7.865E-02    88.50           0.000E+00     0.00
 45.00    110.00            8.828E-02    88.47           0.000E+00     0.00
 50.00    110.00            9.758E-02    88.44           0.000E+00     0.00
 55.00    110.00            1.064E-01    88.41           0.000E+00     0.00
 60.00    110.00            1.145E-01    88.38           0.000E+00     0.00
 65.00    110.00            1.218E-01    88.36           0.000E+00     0.00
 70.00    110.00            1.281E-01    88.34           0.000E+00     0.00
 75.00    110.00            1.332E-01    88.32           0.000E+00     0.00
 80.00    110.00            1.369E-01    88.31           0.000E+00     0.00
 85.00    110.00            1.392E-01    88.30           0.000E+00     0.00
 90.00    110.00            1.399E-01    88.30           0.000E+00     0.00
  0.00    120.00            0.000E+00     0.00           0.000E+00     0.00
  5.00    120.00            9.688E-03    88.65           0.000E+00     0.00
 10.00    120.00            1.941E-02    88.65           0.000E+00     0.00
 15.00    120.00            2.918E-02    88.63           0.000E+00     0.00
 20.00    120.00            3.903E-02    88.61           0.000E+00     0.00
 25.00    120.00            4.893E-02    88.59           0.000E+00     0.00
 30.00    120.00            5.888E-02    88.56           0.000E+00     0.00
 35.00    120.00            6.881E-02    88.53           0.000E+00     0.00
 40.00    120.00            7.865E-02    88.50           0.000E+00     0.00
 45.00    120.00            8.828E-02    88.47           0.000E+00     0.00
 50.00    120.00            9.758E-02    88.44           0.000E+00     0.00
 55.00    120.00            1.064E-01    88.41           0.000E+00     0.00
 60.00    120.00            1.145E-01    88.38           0.000E+00     0.00
 65.00    120.00            1.218E-01    88.36           0.000E+00     0.00
 70.00    120.00            1.281E-01    88.34           0.000E+00     0.00
 75.00    120.00            1.332E-01    88.32           0.000E+00     0.00
 80.00    120.00            1.369E-01    88.31           0.000E+00     0.00
 85.00    120.00            1.392E-01    88.30           0.000E+00     0.00
 90.00    120.00            1.399E-01    88.30           0.000E+00     0.00
  0.00    130.00            0.000E+00     0.00           0.000E+00     0.00
  5.00    130.00            9.688E-03    88.65           0.000E+00     0.00
 10.00    130.00            1.941E-02    88.65           0.000E+00     0.00
 15.00    130.00            2.918E-02    88.63           0.000E+00     0.00
 20.00    130.00            3.903E-02    88.61           0.000E+00     0.00
 25.00    130.00            4.893E-02    88.59           0.000E+00     0.00
 30.00    130.00            5.888E-02    88.56           0.000E+00     0.00
 35.00    130.00            6.881E-02    88.53           0.000E+00     0.00
 40.00    130.00            7.865E-02    88.50           0.000E+00     0.00
 45.00    130.00            8.828E-02    88.47           0.000E+00     0.00
 50.00    130.00            9.758E-02    88.44           0.000E+00     0.00
 55.00    130.00            1.064E-01    88.41           0.000E+00     0.00
 60.00    130.00            1.145E-01    88.38           0.000E+00     0.00
 65.00    130.00            1.218E-01    88.36           0.000E+00     0.00
 70.00    130.00            1.281E-01    88.34           0.000E+00     0.00
 75.00    130.00            1.332E-01    88.32           0.000E+00     0.00
 80.00    130.00            1.369E-01    88.31           0.000E+00     0.00
 85.00    130.00            1.392E-01    88.30           0.000E+00     0.00
 90.00    130.00            1.399E-01    88.30           0.000E+00     0.00
  0.00    140.00            0.000E+00     0.00           0.000E+00     0.00
  5.00    140.00            9.688E-03    88.65           0.000E+00     0.00
 10.00    140.00            1.941E-02    88.65           0.000E+00     0.00
 15.00    140.00            2.918E-02    88.63           0.000E+00     0.00
 20.00    140.00            3.903E-02    88.61           0.000E+00     0.00
 25.00    140.00            4.893E-02    88.59           0.000E+00     0.00
 30.00    140.00            5.888E-02    88.56           0.000E+00     0.00
 35.00    140.00            6.881E-02    88.53           0.000E+00     0.00
 40.00    140.00            7.865E-02    88.50           0.000E+00     0.00
 45.00    140.00            8.828E-02    88.47           0.000E+00     0.00
 50.00    140.00            9.758E-02    88.44           0.000E+00     0.00
 55.00    140.00            1.064E-01    88.41           0.000E+00     0.00
 60.00    140.00            1.145E-01    88.38           0.000E+00     0.00
 65.00    140.00            1.218E-01    88.36           0.000E+00     0.00
 70.00    140.00            1.281E-01    88.34           0.000E+00     0.00
 75.00    140.00            1.332E-01    88.32           0.000E+00     0.00
 80.00    140.00            1.369E-01    88.31           0.000E+00     0.00
 85.00    140.00            1.392E-01    88.30           0.000E+00     0.00
 90.00    140.00            1.399E-01    88.30           0.000E+00     0.00
  0.00    150.00            0.000E+00     0.00           0.000E+00     0.00
  5.00    150.00            9.688E-03    88.65           0.000E+00     0.00
 10.00    150.00            1.941E-02    88.65           0.000E+00     0.00
 15.00    150.00            2.918E-02    88.63           0.000E+00     0.00
 20.00    150.00            3.903E-02    88.61           0.000E+00     0.00
 25.00    150.00            4.893E-02    88.59           0.000E+00     0.00
 30.00    150.00            5.888E-02    88.56           0.000E+00     0.00
 35.00    150.00            6.881E-02    88.53           0.000E+00     0.00
 40.00    150.00            7.865E-02    88.50           0.000E+00     0.00
 45.00    150.00            8.828E-02    88.47           0.000E+00     0.00
 50.00    150.00            9.758E-02    88.44           0.000E+00     0.00
 55.00    150.00            1.064E-01    88.41           0.000E+00     0.00
 60.00    150.00            1.145E-01    88.38           0.000E+00     0.00
 65.00    150.00            1.218E-01    88.36           0.000E+00     0.00
 70.00    150.00            1.281E-01    88.34           0.000E+00     0.00
 75.00    150.00            1.332E-01    88.32           0.000E+00     0.00
 80.00    150.00            1.369E-01    88.31           0.000E+00     0.00
 85.00    150.00            1.392E-01    88.30           0.000E+00     0.00
 90.00    150.00            1.399E-01    88.30           0.000E+00     0.00
  0.00    160.00            0.000E+00     0.00           0.000E+00     0.00
  5.00    160.00            9.688E-03    88.65           0.000E+00     0.00
 10.00    160.00            1.941E-02    88.65           0.000E+00     0.00
 15.00    160.00            2.918E-02    88.63           0.000E+00     0.00
 20.00    160.00            3.903E-02    88.61           0.000E+00     0.00
 25.00    160.00            4.893E-02    88.59           0.000E+00     0.00
 30.00    160.00            5.888E-02    88.56           0.000E+00     0.00
 35.00    160.00            6.881E-02    88.53           0.000E+00     0.00
 40.00    160.00            7.865E-02    88.50           0.000E+00     0.00
 45.00    160.00            8.828E-02    88.47           0.000E+00     0.00
 50.00    160.00            9.758E-02    88.44           0.000E+00     0.00
 55.00    160.00            1.064E-01    88.41           0.000E+00     0.00
 60.00    160.00            1.145E-01    88.38           0.000E+00     0.00
 65.00    160.00            1.218E-01    88.36           0.000E+00     0.00
 70.00    160.00            1.281E-01    88.34           0.000E+00     0.00
 75.00    160.00            1.332E-01    88.32           0.000E+00     0.00
 80.00    160.00            1.369E-01    88.31           0.000E+00     0.00
 85.00    160.00            1.392E-01    88.30           0.000E+00     0.00
 90.00    160.00            1.399E-01    88.30           0.000E+00     0.00
  0.00    170.00            0.000E+00     0.00           0.000E+00     0.00
  5.00    170.00            9.688E-03    88.65           0.000E+00     0.00
 10.00    170.00            1.941E-02    88.65           0.000E+00     0.00
 15.00    170.00            2.918E-02    88.63           0.000E+00     0.00
 20.00    170.00            3.903E-02    88.61           0.000E+00     0.00
 25.00    170.00            4.893E-02    88.59           0.000E+00     0.00
 30.00    170.00            5.888E-02    88.56           0.000E+00     0.00
 35.00    170.00            6.881E-02    88.53           0.000E+00     0.00
 40.00    170.00            7.865E-02    88.50           0.000E+00     0.00
 45.00    170.00            8.828E-02    88.47           0.000E+00     0.00
 50.00    170.00            9.758E-02    88.44           0.000E+00     0.00
 55.00    170.00            1.064E-01    88.41           0.000E+00     0.00
 60.00    170.00            1.145E-01    88.38           0.000E+00     0.00
 65.00    170.00            1.218E-01    88.36           0.000E+00     0.00
 70.00    170.00            1.281E-01    88.34           0.000E+00     0.00
 75.00    170.00            1.332E-01    88.32           0.000E+00     0.00
 80.00    170.00            1.369E-01    88.31           0.000E+00     0.00
 85.00    170.00            1.392E-01    88.30           0.000E+00     0.00
 90.00    170.00            1.399E-01    88.30           0.000E+00     0.00
  0.00    180.00            0.000E+00     0.00           0.000E+00     0.00
  5.00    180.00            9.688E-03    88.65           0.000E+00     0.00
 10.00    180.00            1.941E-02    88.65           0.000E+00     0.00
 15.00    180.00            2.918E-02    88.63           0.000E+00     0.00
 20.00    180.00            3.903E-02    88.61           0.000E+00     0.00
 25.00    180.00            4.893E-02    88.59           0.000E+00     0.00
 30.00    180.00            5.888E-02    88.56           0.000E+00     0.00
 35.00    180.00            6.881E-02    88.53           0.000E+00     0.00
 40.00    180.00            7.865E-02    88.50           0.000E+00     0.00
 45.00    180.00            8.828E-02    88.47           0.000E+00     0.00
 50.00    180.00            9.758E-02    88.44           0.000E+00     0.00
 55.00    180.00            1.064E-01    88.41           0.000E+00     0.00
 60.00    180.00            1.145E-01    88.38           0.000E+00     0.00
 65.00    180.00            1.218E-01    88.36           0.000E+00     0.00
 70.00    180.00            1.281E-01    88.34           0.000E+00     0.00
 75.00    180.00            1.332E-01    88.32           0.000E+00     0.00
 80.00    180.00            1.369E-01    88.31           0.000E+00     0.00
 85.00    180.00            1.392E-01    88.30           0.000E+00     0.00
 90.00    180.00            1.399E-01    88.30           0.000E+00     0.00
  0.00    190.00            0.000E+00     0.00           0.000E+00     0.00
  5.00    190.00            9.688E-03    88.65           0.000E+00     0.00
 10.00    190.00            1.941E-02    88.65           0.000E+00     0.00
 15.00    190.00            2.918E-02    88.63           0.000E+00     0.00
 20.00    190.00            3.903E-02    88.61           0.000E+00     0.00
 25.00    190.00            4.893E-02    88.59           0.000E+00     0.00
 30.00    190.00            5.888E-02    88.56           0.000E+00     0.00
 35.00    190.00            6.881E-02    88.53           0.000E+00     0.00
 40.00    190.00            7.865E-02    88.50           0.000E+00     0.00
 45.00    190.00            8.828E-02    88.47           0.000E+00     0.00
 50.00    190.00            9.758E-02    88.44           0.000E+00     0.00
 55.00    190.00            1.064E-01    88.41           0.000E+00     0.00
 60.00    190.00            1.145E-01    88.38           0.000E+00     0.00
 65.00    190.00            1.218E-01    88.36           0.000E+00     0.00
 70.00    190.00            1.281E-01    88.34           0.000E+00     0.00
 75.00    190.00            1.332E-01    88.32           0.000E+00     0.00
 80.00    190.00            1.369E-01    88.31           0.000E+00     0.00
 85.00    190.00            1.392E-01    88.30           0.000E+00     0.00
 90.00    190.00            1.399E-01    88.30           0.000E+00     0.00
  0.00    200.00            0.000E+00     0.00           0.000E+00     0.00
  5.00    200.00            9.688E-03    88.65           0.000E+00     0.00
 10.00    200.00            1.941E-02    88.65           0.000E+00     0.00
 15.00    200.00            2.918E-02    88.63           0.000E+00     0.00
 20.00    200.00            3.903E-02    88.61           0.000E+00     0.00
 25.00    200.00            4.893E-02    88.59           0.000E+00     0.00
 30.00    200.00            5.888E-02    88.56           0.000E+00     0.00
 35.00    200.00            6.881E-02    88.53           0.000E+00     0.00
 40.00    200.00            7.865E-02    88.50           0.000E+00     0.00
 45.00    200.00            8.828E-02    88.47           0.000E+00     0.00
 50.00    200.00            9.758E-02    88.44           0.000E+00     0.00
 55.00    200.00            1.064E-01    88.41           0.000E+00     0.00
 60.00    200.00            1.145E-01    88.38           0.000E+00     0.00
 65.00    200.00            1.218E-01    88.36           0.000E+00     0.00
 70.00    200.00            1.281E-01    88.34           0.000E+00     0.00
 75.00    200.00            1.332E-01    88.32           0.000E+00     0.00
 80.00    200.00            1.369E-01    88.31           0.000E+00     0.00
 85.00    200.00            1.392E-01    88.30           0.000E+00     0.00
 90.00    200.00            1.399E-01    88.30           0.000E+00     0.00
  0.00    210.00            0.000E+00     0.00           0.000E+00     0.00
  5.00    210.00            9.688E-03    88.65           0.000E+00     0.00
 10.00    210.00            1.941E-02    88.65           0.000E+00     0.00
 15.00    210.00            2.918E-02    88.63           0.000E+00     0.00
 20.00    210.00            3.903E-02    88.61           0.000E+00     0.00
 25.00    210.00            4.893E-02    88.59           0.000E+00     0.00
 30.00    210.00            5.888E-02    88.56           0.000E+00     0.00
 35.00    210.00            6.881E-02    88.53           0.000E+00     0.00
 40.00    210.00            7.865E-02    88.50           0.000E+00     0.00
 45.00    210.00            8.828E-02    88.47           0.000E+00     0.00
 50.00    210.00            9.758E-02    88.44           0.000E+00     0.00
 55.00    210.00            1.064E-01    88.41           0.000E+00     0.00
 60.00    210.00            1.145E-01    88.38           0.000E+00     0.00
 65.00    210.00            1.218E-01    88.36           0.000E+00     0.00
 70.00    210.00            1.281E-01    88.34           0.000E+00     0.00
 75.00    210.00            1.332E-01    88.32           0.000E+00     0.00
 80.00    210.00            1.369E-01    88.31           0.000E+00     0.00
 85.00    210.00            1.392E-01    88.30           0.000E+00     0.00
 90.00    210.00            1.399E-01    88.30           0.000E+00     0.00
  0.00    220.00            0.000E+00     0.00           0.000E+00     0.00
  5.00    220.00            9.688E-03    88.65           0.000E+00     0.00
 10.00    220.00            1.941E-02    88.65           0.000E+00     0.00
 15.00    220.00            2.918E-02    88.63           0.000E+00     0.00
 20.00    220.00            3.903E-02    88.61           0.000E+00     0.00
 25.00    220.00            4.893E-02    88.59           0.000E+00     0.00
 30.00    220.00            5.888E-02    88.56           0.000E+00     0.00
 35.00    220.00            6.881E-02    88.53           0.000E+00     0.00
 40.00    220.00            7.865E-02    88.50           0.000E+00     0.00
 45.00    220.00            8.828E-02    88.47           0.000E+00     0.00
 50.00    220.00            9.758E-02    88.44           0.000E+00     0.00
 55.00    220.00            1.064E-01    88.41           0.000E+00     0.00
 60.00    220.00            1.145E-01    88.38           0.000E+00     0.00
 65.00    220.00            1.218E-01    88.36           0.000E+00     0.00
 70.00    220.00            1.281E-01    88.34           0.000E+00     0.00
 75.00    220.00            1.332E-01    88.32           0.000E+00     0.00
 80.00    220.00            1.369E-01    88.31           0.000E+00     0.00
 85.00    220.00            1.392E-01    88.30           0.000E+00     0.00
 90.00    220.00            1.399E-01    88.30           0.000E+00     0.00
  0.00    230.00            0.000E+00     0.00           0.000E+00     0.00
  5.00    230.00            9.688E-03    88.65           0.000E+00     0.00
 10.00    230.00            1.941E-02    88.65           0.000E+00     0.00
 15.00    230.00            2.918E-02    88.63           0.000E+00     0.00
 20.00    230.00            3.903E-02    88.61           0.000E+00     0.00
 25.00    230.00            4.893E-02    88.59           0.000E+00     0.00
 30.00    230.00            5.888E-02    88.56           0.000E+00     0.00
 35.00    230.00            6.881E-02    88.53           0.000E+00     0.00
 40.00    230.00            7.865E-02    88.50           0.000E+00     0.00
 45.00    230.00            8.828E-02    88.47           0.000E+00     0.00
 50.00    230.00            9.758E-02    88.44           0.000E+00     0.00
 55.00    230.00            1.064E-01    88.41           0.000E+00     0.00
 60.00    230.00            1.145E-01    88.38           0.000E+00     0.00
 65.00    230.00            1.218E-01    88.36           0.000E+00     0.00
 70.00    230.00            1.281E-01    88.34           0.000E+00     0.00
 75.00    230.00            1.332E-01    88.32           0.000E+00     0.00
 80.00    230.00            1.369E-01    88.31           0.000E+00     0.00
 85.00    230.00            1.392E-01    88.30           0.000E+00     0.00
 90.00    230.00            1.399E-01    88.30           0.000E+00     0.00
  0.00    240.00            0.000E+00     0.00           0.000E+00     0.00
  5.00    240.00            9.688E-03    88.65           0.000E+00     0.00
 10.00    240.00            1.941E-02    88.65           0.000E+00     0.00
 15.00    240.00            2.918E-02    88.63           0.000E+00     0.00
 20.00    240.00            3.903E-02    88.61           0.000E+00     0.00
 25.00    240.00            4.893E-02    88.59           0.000E+00     0.00
 30.00    240.00            5.888E-02    88.56           0.000E+00     0.00
 35.00    240.00            6.881E-02    88.53           0.000E+00     0.00
 40.00    240.00            7.865E-02    88.50           0.000E+00     0.00
 45.00    240.00            8.828E-02    88.47           0.000E+00     0.00
 50.00    240.00            9.758E-02    88.44           0.000E+00     0.00
 55.00    240.00            1.064E-01    88.41           0.000E+00     0.00
 60.00    240.00            1.145E-01    88.38           0.000E+00     0.00
 65.00    240.00            1.218E-01    88.36           0.000E+00     0.00
 70.00    240.00            1.281E-01    88.34           0.000E+00     0.00
 75.00    240.00            1.332E-01    88.32           0.000E+00     0.00
 80.00    240.00            1.369E-01    88.31           0.000E+00     0.00
 85.00    240.00            1.392E-01    88.30           0.000E+00     0.00
 90.00    240.00            1.399E-01    88.30           0.000E+00     0.00
  0.00    250.00            0.000E+00     0.00           0.000E+00     0.00
  5.00    250.00            9.688E-03    88.65           0.000E+00     0.00
 10.00    250.00            1.941E-02    88.65           0.000E+00     0.00
 15.00    250.00            2.918E-02    88.63           0.000E+00     0.00
 20.00    250.00            3.903E-02    88.61           0.000E+00     0.00
 25.00    250.00            4.893E-02    88.59           0.000E+00     0.00
 30.00    250.00            5.888E-02    88.56           0.000E+00     0.00
 35.00    250.00            6.881E-02    88.53           0.000E+00     0.00
 40.00    250.00            7.865E-02    88.50           0.000E+00     0.00
 45.00    250.00            8.828E-02    88.47           0.000E+00     0.00
 50.00    250.00            9.758E-02    88.44           0.000E+00     0.00
 55.00    250.00            1.064E-01    88.41           0.000E+00     0.00
 60.00    250.00            1.145E-01    88.38           0.000E+00     0.00
 65.00    250.00            1.218E-01    88.36           0.000E+00     0.00
 70.00    250.00            1.281E-01    88.34           0.000E+00     0.00
 75.00    250.00            1.332E-01    88.32           0.000E+00     0.00
 80.00    250.00            1.369E-01    88.31           0.000E+00     0.00
 85.00    250.00            1.392E-01    88.30           0.000E+00     0.00
 90.00    250.00            1.399E-01    88.30           0.000E+00     0.00
  0.00    260.00            0.000E+00     0.00           0.000E+00     0.00
  5.00    260.00            9.688E-03    88.65           0.000E+00     0.00
 10.00    260.00            1.941E-02    88.65           0.000E+00     0.00
 15.00    260.00            2.918E-02    88.63           0.000E+00     0.00
 20.00    260.00            3.903E-02    88.61           0.000E+00     0.00
 25.00    260.00            4.893E-02    88.59           0.000E+00     0.00
 30.00    260.00            5.888E-02    88.56           0.000E+00     0.00
 35.00    260.00            6.881E-02    88.53           0.000E+00     0.00
 40.00    260.00            7.865E-02    88.50           0.000E+00     0.00
 45.00    260.00            8.828E-02    88.47           0.000E+00     0.00
 50.00    260.00            9.758E-02    88.44           0.000E+00     0.00
 55.00    260.00            1.064E-01    88.41           0.000E+00     0.00
 60.00    260.00            1.145E-01    88.38           0.000E+00     0.00
 65.00    260.00            1.218E-01    88.36           0.000E+00     0.00
 70.00    260.00            1.281E-01    88.34           0.000E+00     0.00
 75.00    260.00            1.332E-01    88.32           0.000E+00     0.00
 80.00    260.00            1.369E-01    88.31           0.000E+00     0.00
 85.00    260.00            1.392E-01    88.30           0.000E+00     0.00
 90.00    260.00            1.399E-01    88.30           0.000E+00     0.00
  0.00    270.00            0.000E+00     0.00           0.000E+00     0.00
  5.00    270.00            9.688E-03    88.65           0.000E+00     0.00
 10.00    270.00            1.941E-02    88.65           0.000E+00     0.00
 15.00    270.00            2.918E-02    88.63           0.000E+00     0.00
 20.00    270.00            3.903E-02    88.61           0.000E+00     0.00
 25.00    270.00            4.893E-02    88.59           0.000E+00     0.00
 30.00    270.00            5.888E-02    88.56           0.000E+00     0.00
 35.00    270.00            6.881E-02    88.53           0.000E+00     0.00
 40.00    270.00            7.865E-02    88.50           0.000E+00     0.00
 45.00    270.00            8.828E-02    88.47           0.000E+00     0.00
 50.00    270.00            9.758E-02    88.44           0.000E+00     0.00
 55.00    270.00            1.064E-01    88.41           0.000E+00     0.00
 60.00    270.00            1.145E-01    88.38           0.000E+00     0.00
 65.00    270.00            1.218E-01    88.36           0.000E+00     0.00
 70.00    270.00            1.281E-01    88.34           0.000E+00     0.00
 75.00    270.00            1.332E-01    88.32           0.000E+00     0.00
 80.00    270.00            1.369E-01    88.31           0.000E+00     0.00
 85.00    270.00            1.392E-01    88.30           0.000E+00     0.00
 90.00    270.00            1.399E-01    88.30           0.000E+00     0.00
  0.00    280.00            0.000E+00     0.00           0.000E+00     0.00
  5.00    280.00            9.688E-03    88.65           0.000E+00     0.00
 10.00    280.00            1.941E-02    88.65           0.000E+00     0.00
 15.00    280.00            2.918E-02    88.63           0.000E+00     0.00
 20.00    280.00            3.903E-02    88.61           0.000E+00     0.00
 25.00    280.00            4.893E-02    88.59           0.000E+00     0.00
 30.00    280.00            5.888E-02    88.56           0.000E+00     0.00
 35.00    280.00            6.881E-02    88.53           0.000E+00     0.00
 40.00    280.00            7.865E-02    88.50           0.000E+00     0.00
 45.00    280.00            8.828E-02    88.47           0.000E+00     0.00
 50.00    280.00            9.758E-02    88.44           0.000E+00     0.00
 55.00    280.00            1.064E-01    88.41           0.000E+00     0.00
 60.00    280.00            1.145E-01    88.38           0.000E+00     0.00
 65.00    280.00            1.218E-01    88.36           0.000E+00     0.00
 70.00    280.00            1.281E-01    88.34           0.000E+00     0.00
 75.00    280.00            1.332E-01    88.32           0.000E+00     0.00
 80.00    280.00            1.369E-01    88.31           0.000E+00     0.00
 85.00    280.00            1.392E-01    88.30           0.000E+00     0.00
 90.00    280.00            1.399E-01    88.30           0.000E+00     0.00
  0.00    290.00            0.000E+00     0.00           0.000E+00     0.00
  5.00    290.00            9.688E-03    88.65           0.000E+00     0.00
 10.00    290.00            1.941E-02    88.65           0.000E+00     0.00
 15.00    290.00            2.918E-02    88.63           0.000E+00     0.00
 20.00    290.00            3.903E-02    88.61           0.000E+00     0.00
 25.00    290.00            4.893E-02    88.59           0.000E+00     0.00
 30.00    290.00            5.888E-02    88.56           0.000E+00     0.00
 35.00    290.00            6.881E-02    88.53           0.000E+00     0.00
 40.00    290.00            7.865E-02    88.50           0.000E+00     0.00
 45.00    290.00            8.828E-02    88.47           0.000E+00     0.00
 50.00    290.00            9.758E-02    88.44           0.000E+00     0.00
 55.00    290.00            1.064E-01    88.41           0.000E+00     0.00
 60.00    290.00            1.145E-01    88.38           0.000E+00     0.00
 65.00    290.00            1.218E-01    88.36           0.000E+00     0.00
 70.00    290.00            1.281E-01    88.34           0.000E+00     0.00
 75.00    290.00            1.332E-01    88.32           0.000E+00     0.00
 80.00    290.00            1.369E-01    88.31           0.000E+00     0.00
 85.00    290.00            1.392E-01    88.30           0.000E+00     0.00
 90.00    290.00            1.399E-01    88.30           0.000E+00     0.00
  0.00    300.00            0.000E+00     0.00           0.000E+00     0.00
  5.00    300.00            9.688E-03    88.65           0.000E+00     0.00
 10.00    300.00            1.941E-02    88.65           0.000E+00     0.00
 15.00    300.00            2.918E-02    88.63           0.000E+00     0.00
 20.00    300.00            3.903E-02    88.61           0.000E+00     0.00
 25.00    300.00            4.893E-02    88.59           0.000E+00     0.00
 30.00    300.00            5.888E-02    88.56           0.000E+00     0.00
 35.00    300.00            6.881E-02    88.53           0.000E+00     0.00
 40.00    300.00            7.865E-02    88.50           0.000E+00     0.00
 45.00    300.00            8.828E-02    88.47           0.000E+00     0.00
 50.00    300.00            9.758E-02    88.44           0.000E+00     0.00
 55.00    300.00            1.064E-01    88.41           0.000E+00     0.00
 60.00    300.00            1.145E-01    88.38           0.000E+00     0.00
 65.00    300.00            1.218E-01    88.36           0.000E+00     0.00
 70.00    300.00            1.281E-01    88.34           0.000E+00     0.00
 75.00    300.00            1.332E-01    88.32           0.000E+00     0.00
 80.00    300.00            1.369E-01    88.31           0.000E+00     0.00
 85.00    300.00            1.392E-01    88.30           0.000E+00     0.00
 90.00    300.00            1.399E-01    88.30           0.000E+00     0.00
  0.00    310.00            0.000E+00     0.00           0.000E+00     0.00
  5.00    310.00            9.688E-03    88.65           0.000E+00     0.00
 10.00    310.00            1.941E-02    88.65           0.000E+00     0.00
 15.00    310.00            2.918E-02    88.63           0.000E+00     0.00
 20.00    310.00            3.903E-02    88.61           0.000E+00     0.00
 25.00    310.00            4.893E-02    88.59           0.000E+00     0.00
 30.00    310.00            5.888E-02    88.56           0.000E+00     0.00
 35.00    310.00            6.881E-02    88.53           0.000E+00     0.00
 40.00    310.00            7.865E-02    88.50           0.000E+00     0.00
 45.00    310.00            8.828E-02    88.47           0.000E+00     0.00
 50.00    310.00            9.758E-02    88.44           0.000E+00     0.00
 55.00    310.00            1.064E-01    88.41           0.000E+00     0.00
 60.00    310.00            1.145E-01    88.38           0.000E+00     0.00
 65.00    310.00            1.218E-01    88.36           0.000E+00     0.00
 70.00    310.00            1.281E-01    88.34           0.000E+00     0.00
 75.00    310.00            1.332E-01    88.32           0.000E+00     0.00
 80.00    310.00            1.369E-01    88.31           0.000E+00     0.00
 85.00    310.00            1.392E-01    88.30           0.000E+00     0.00
 90.00    310.00            1.399E-01    88.30           0.000E+00     0.00
  0.00    320.00            0.000E+00     0.00           0.000E+00     0.00
  5.00    320.00            9.688E-03    88.65           0.000E+00     0.00
 10.00    320.00            1.941E-02    88.65           0.000E+00     0.00
 15.00    320.00            2.918E-02    88.63           0.000E+00     0.00
 20.00    320.00            3.903E-02    88.61           0.000E+00     0.00
 25.00    320.00            4.893E-02    88.59           0.000E+00     0.00
 30.00    320.00            5.888E-02    88.56           0.000E+00     0.00
 35.00    320.00            6.881E-02    88.53           0.000E+00     0.00
 40.00    320.00            7.865E-02    88.50           0.000E+00     0.00
 45.00    320.00            8.828E-02    88.47           0.000E+00     0.00
 50.00    320.00            9.758E-02    88.44           0.000E+00     0.00
 55.00    320.00            1.064E-01    88.41           0.000E+00     0.00
 60.00    320.00            1.145E-01    88.38           0.000E+00     0.00
 65.00    320.00            1.218E-01    88.36           0.000E+00     0.00
 70.00    320.00            1.281E-01    88.34           0.000E+00     0.00
 75.00    320.00            1.332E-01    88.32           0.000E+00     0.00
 80.00    320.00            1.369E-01    88.31           0.000E+00     0.00
 85.00    320.00            1.392E-01    88.30           0.000E+00     0.00
 90.00    320.00            1.399E-01    88.30           0.000E+00     0.00
  0.00    330.00            0.000E+00     0.00           0.000E+00     0.00
  5.00    330.00            9.688E-03    88.65           0.000E+00     0.00
 10.00    330.00            1.941E-02    88.65           0.000E+00     0.00
 15.00    330.00            2.918E-02    88.63           0.000E+00     0.00
 20.00    330.00            3.903E-02    88.61           0.000E+00     0.00
 25.00    330.00            4.893E-02    88.59           0.000E+00     0.00
 30.00    330.00            5.888E-02    88.56           0.000E+00     0.00
 35.00    330.00            6.881E-02    88.53           0.000E+00     0.00
 40.00    330.00            7.865E-02    88.50           0.000E+00     0.00
 45.00    330.00            8.828E-02    88.47           0.000E+00     0.00
 50.00    330.00            9.758E-02    88.44           0.000E+00     0.00
 55.00    330.00            1.064E-01    88.41           0.000E+00     0.00
 60.00    330.00            1.145E-01    88.38           0.000E+00     0.00
 65.00    330.00            1.218E-01    88.36           0.000E+00     0.00
 70.00    330.00            1.281E-01    88.34           0.000E+00     0.00
 75.00    330.00            1.332E-01    88.32           0.000E+00     0.00
 80.00    330.00            1.369E-01    88.31           0.000E+00     0.00
 85.00    330.00            1.392E-01    88.30           0.000E+00     0.00
 90.00    330.00            1.399E-01    88.30           0.000E+00     0.00
  0.00    340.00            0.000E+00     0.00           0.000E+00     0.00
  5.00    340.00            9.688E-03    88.65           0.000E+00     0.00
 10.00    340.00            1.941E-02    88.65           0.000E+00     0.00
 15.00    340.00            2.918E-02    88.63           0.000E+00     0.00
 20.00    340.00            3.903E-02    88.61           0.000E+00     0.00
 25.00    340.00            4.893E-02    88.59           0.000E+00     0.00
 30.00    340.00            5.888E-02    88.56           0.000E+00     0.00
 35.00    340.00            6.881E-02    88.53           0.000E+00     0.00
 40.00    340.00            7.865E-02    88.50           0.000E+00     0.00
 45.00    340.00            8.828E-02    88.47           0.000E+00     0.00
 50.00    340.00            9.758E-02    88.44           0.000E+00     0.00
 55.00    340.00            1.064E-01    88.41           0.000E+00     0.00
 60.00    340.00            1.145E-01    88.38           0.000E+00     0.00
 65.00    340.00            1.218E-01    88.36           0.000E+00     0.00
 70.00    340.00            1.281E-01    88.34           0.000E+00     0.00
 75.00    340.00            1.332E-01    88.32           0.000E+00     0.00
 80.00    340.00            1.369E-01    88.31           0.000E+00     0.00
 85.00    340.00            1.392E-01    88.30           0.000E+00     0.00
 90.00    340.00            1.399E-01    88.30           0.000E+00     0.00
  0.00    350.00            0.000E+00     0.00           0.000E+00     0.00
  5.00    350.00            9.688E-03    88.65           0.000E+00     0.00
 10.00    350.00            1.941E-02    88.65           0.000E+00     0.00
 15.00    350.00            2.918E-02    88.63           0.000E+00     0.00
 20.00    350.00            3.903E-02    88.61           0.000E+00     0.00
 25.00    350.00            4.893E-02    88.59           0.000E+00     0.00
 30.00    350.00            5.888E-02    88.56           0.000E+00     0.00
 35.00    350.00            6.881E-02    88.53           0.000E+00     0.00
 40.00    350.00            7.865E-02    88.50           0.000E+00     0.00
 45.00    350.00            8.828E-02    88.47           0.000E+00     0.00
 50.00    350.00            9.758E-02    88.44           0.000E+00     0.00
 55.00    350.00            1.064E-01    88.41           0.000E+00     0.00
 60.00    350.00            1.145E-01    88.38           0.000E+00     0.00
 65.00    350.00            1.218E-01    88.36           0.000E+00     0.00
 70.00    350.00            1.281E-01    88.34           0.000E+00     0.00
 75.00    350.00            1.332E-01    88.32           0.000E+00     0.00
 80.00    350.00            1.369E-01    88.31           0.000E+00     0.00
 85.00    350.00            1.392E-01    88.30           0.000E+00     0.00
 90.00    350.00            1.399E-01    88.30           0.000E+00     0.00
  0.00    360.00            0.000E+00     0.00           0.000E+00     0.00
  5.00    360.00            9.688E-03    88.65           0.000E+00     0.00
 10.00    360.00            1.941E-02    88.65           0.000E+00     0.00
 15.00    360.00            2.918E-02    88.63           0.000E+00     0.00
 20.00    360.00            3.903E-02    88.61           0.000E+00     0.00
 25.00    360.00            4.893E-02    88.59           0.000E+00     0.00
 30.00    360.00            5.888E-02    88.56           0.000E+00     0.00
 35.00    360.00            6.881E-02    88.53           0.000E+00     0.00
 40.00    360.00            7.865E-02    88.50           0.000E+00     0.00
 45.00    360.00            8.828E-02    88.47           0.000E+00     0.00
 50.00    360.00            9.758E-02    88.44           0.000E+00     0.00
 55.00    360.00            1.064E-01    88.41           0.000E+00     0.00
 60.00    360.00            1.145E-01    88.38           0.000E+00     0.00
 65.00    360.00            1.218E-01    88.36           0.000E+00     0.00
 70.00    360.00            1.281E-01    88.34           0.000E+00     0.00
 75.00    360.00            1.332E-01    88.32           0.000E+00     0.00
 80.00    360.00            1.369E-01    88.31           0.000E+00     0.00
 85.00    360.00            1.392E-01    88.30           0.000E+00     0.00
 90.00    360.00            1.399E-01    88.30           0.000E+00     0.00
