                   ****************************************
                     MINI-NUMERICAL ELECTROMAGNETICS CODE
                                   MININEC
                   ****************************************

FREQUENCY (MHZ): 7.15
    WAVE LENGTH =  41.93007  METERS

ENVIRONMENT (+1 FOR FREE SPACE, -1 FOR GROUND PLANE): -1
 NUMBER OF MEDIA (0 FOR PERFECTLY CONDUCTING GROUND):  0

NO. OF WIRES: 1

WIRE NO. 1
            COORDINATES                                 END         NO. OF
   X             Y             Z          RADIUS     CONNECTION     SEGMENTS
 0             0             0                         -1
 0             0             10.0838       .001         0             20

                  **** ANTENNA GEOMETRY ****

WIRE NO.  1  COORDINATES                                CONNECTION PULSE
X             Y             Z             RADIUS        END1 END2  NO.
 0             0             0             .001         -1    1   1
 0             0             .50419        .001          1    1   2
 0             0             1.00838       .001          1    1   3
 0             0             1.51257       .001          1    1   4
 0             0             2.01676       .001          1    1   5
 0             0             2.52095       .001          1    1   6
 0             0             3.02514       .001          1    1   7
 0             0             3.52933       .001          1    1   8
 0             0             4.03352       .001          1    1   9
 0             0             4.53771       .001          1    1  10
 0             0             5.0419        .001          1    1  11
 0             0             5.54609       .001          1    1  12
 0             0             6.05028       .001          1    1  13
 0             0             6.55447       .001          1    1  14
 0             0             7.05866       .001          1    1  15
 0             0             7.56285       .001          1    1  16
 0             0             8.06704       .001          1    1  17
 0             0             8.57123       .001          1    1  18
 0             0             9.07542       .001          1    1  19
 0             0             9.57961       .001          1    0  20

NO. OF SOURCES :  1
PULSE NO., VOLTAGE MAGNITUDE, PHASE (DEGREES):  1 , 1 , 0
NUMBER OF LOADS 1
PULSE NO.,RESISTANCE,REACTANCE:  1 , -0        ,  10.14724

********************    SOURCE DATA     ********************
PULSE  1      VOLTAGE = ( 1 , 0 J)
              CURRENT = ( 2.884737E-02 ,  4.719596E-06 J)
              IMPEDANCE = ( 34.6652  , -.005671  J)
              POWER =  1.442368E-02  WATTS

********************    CURRENT DATA    ********************

WIRE NO.  1 :
PULSE         REAL          IMAGINARY     MAGNITUDE     PHASE
 NO.          (AMPS)        (AMPS)        (AMPS)        (DEGREES)
 1             2.884737E-02  4.719596E-06  2.884737E-02  9.373920E-03 
 2             2.870498E-02 -1.958381E-04  2.870564E-02 -.390891  
 3             2.840873E-02 -3.516665E-04  2.841090E-02 -.709218  
 4             2.795395E-02 -4.831301E-04  2.795812E-02 -.990148  
 5             2.734162E-02 -5.941940E-04  2.734807E-02 -1.244969 
 6             2.657426E-02 -6.863424E-04  2.658312E-02 -1.479468 
 7             2.565545E-02 -7.602480E-04  2.566671E-02 -1.697349 
 8             2.458963E-02 -8.162612E-04  2.460317E-02 -1.901255 
 9             2.338198E-02 -8.546016E-04  2.339760E-02 -2.093205 
 10            2.203840E-02 -8.754465E-04  2.205579E-02 -2.274803 
 11            2.056537E-02 -8.789762E-04  2.058414E-02 -2.447367 
 12            1.896985E-02 -8.653963E-04  1.898958E-02 -2.611998 
 13            1.725921E-02 -8.349484E-04  1.727940E-02 -2.769637 
 14            1.544103E-02 -7.879096E-04  1.546112E-02 -2.921099 
 15            1.352286E-02 -7.245843E-04  1.354226E-02 -3.067099 
 16            1.151187E-02 -6.452814E-04  1.152994E-02 -3.208277 
 17            9.414137E-03 -5.502700E-04  9.430205E-03 -3.345215 
 18            7.233370E-03 -4.396833E-04  7.246721E-03 -3.478467 
 19            4.967566E-03 -3.132815E-04  4.977435E-03 -3.608601 
 20            2.598052E-03 -1.696667E-04  2.603586E-03 -3.736415 
E              0             0             0             0

********************    NEAR FIELDS     ********************

X-COORDINATE (M): INITIAL,INCREMENT,NUMBER : -1 ,  1 ,  3
Y-COORDINATE (M): INITIAL,INCREMENT,NUMBER : -1 ,  1 ,  3
Z-COORDINATE (M): INITIAL,INCREMENT,NUMBER :  0 ,  1 ,  2

********************NEAR ELECTRIC FIELDS********************
         FIELD POINT: X = -1         Y = -1         Z =  0       
  VECTOR      REAL          IMAGINARY     MAGNITUDE     PHASE
 COMPONENT     V/M           V/M           V/M           DEG
   X           0             0             0             0
   Y           0             0             0             0
   Z          -.208048       3.198249E-02  .210492       171.2606
   MAXIMUM OR PEAK FIELD =  .210492  V/M

********************NEAR ELECTRIC FIELDS********************
         FIELD POINT: X =  0         Y = -1         Z =  0       
  VECTOR      REAL          IMAGINARY     MAGNITUDE     PHASE
 COMPONENT     V/M           V/M           V/M           DEG
   X           0             0             0             0
   Y           5.980822E-17  1.728888E-17  6.225696E-17  16.1231
   Z          -.243518       4.277446E-02  .247246       170.0375
   MAXIMUM OR PEAK FIELD =  .247246  V/M

********************NEAR ELECTRIC FIELDS********************
         FIELD POINT: X =  1         Y = -1         Z =  0       
  VECTOR      REAL          IMAGINARY     MAGNITUDE     PHASE
 COMPONENT     V/M           V/M           V/M           DEG
   X           0             0             0             0
   Y           0             0             0             0
   Z          -.208048       3.198249E-02  .210492       171.2606
   MAXIMUM OR PEAK FIELD =  .210492  V/M

********************NEAR ELECTRIC FIELDS********************
         FIELD POINT: X = -1         Y =  0         Z =  0       
  VECTOR      REAL          IMAGINARY     MAGNITUDE     PHASE
 COMPONENT     V/M           V/M           V/M           DEG
   X           5.980822E-17  1.728888E-17  6.225696E-17  16.1231
   Y           0             0             0             0
   Z          -.243518       4.277446E-02  .247246       170.0375
   MAXIMUM OR PEAK FIELD =  .247246  V/M

********************NEAR ELECTRIC FIELDS********************
         FIELD POINT: X =  0         Y =  0         Z =  0       
  VECTOR      REAL          IMAGINARY     MAGNITUDE     PHASE
 COMPONENT     V/M           V/M           V/M           DEG
   X           0             0             0             0
   Y           0             0             0             0
   Z          -11.7304       6.844209      13.58107      149.7382
   MAXIMUM OR PEAK FIELD =  13.58107 V/M

********************NEAR ELECTRIC FIELDS********************
         FIELD POINT: X =  1         Y =  0         Z =  0       
  VECTOR      REAL          IMAGINARY     MAGNITUDE     PHASE
 COMPONENT     V/M           V/M           V/M           DEG
   X          -5.980822E-17 -1.728888E-17  6.225696E-17 -163.8769
   Y           0             0             0             0
   Z          -.243518       4.277446E-02  .247246       170.0375
   MAXIMUM OR PEAK FIELD =  .247246  V/M

********************NEAR ELECTRIC FIELDS********************
         FIELD POINT: X = -1         Y =  1         Z =  0       
  VECTOR      REAL          IMAGINARY     MAGNITUDE     PHASE
 COMPONENT     V/M           V/M           V/M           DEG
   X           0             0             0             0
   Y           0             0             0             0
   Z          -.208048       3.198249E-02  .210492       171.2606
   MAXIMUM OR PEAK FIELD =  .210492  V/M

********************NEAR ELECTRIC FIELDS********************
         FIELD POINT: X =  0         Y =  1         Z =  0       
  VECTOR      REAL          IMAGINARY     MAGNITUDE     PHASE
 COMPONENT     V/M           V/M           V/M           DEG
   X           0             0             0             0
   Y          -5.980822E-17 -1.728888E-17  6.225696E-17 -163.8769
   Z          -.243518       4.277446E-02  .247246       170.0375
   MAXIMUM OR PEAK FIELD =  .247246  V/M

********************NEAR ELECTRIC FIELDS********************
         FIELD POINT: X =  1         Y =  1         Z =  0       
  VECTOR      REAL          IMAGINARY     MAGNITUDE     PHASE
 COMPONENT     V/M           V/M           V/M           DEG
   X           0             0             0             0
   Y           0             0             0             0
   Z          -.208048       3.198249E-02  .210492       171.2606
   MAXIMUM OR PEAK FIELD =  .210492  V/M

********************NEAR ELECTRIC FIELDS********************
         FIELD POINT: X = -1         Y = -1         Z =  1       
  VECTOR      REAL          IMAGINARY     MAGNITUDE     PHASE
 COMPONENT     V/M           V/M           V/M           DEG
   X          -2.724826E-02  .137479       .140154       101.2107
   Y          -2.724826E-02  .137479       .140154       101.2107
   Z          -.188388       2.419928E-02  .189936       172.6802
   MAXIMUM OR PEAK FIELD =  .223053  V/M

********************NEAR ELECTRIC FIELDS********************
         FIELD POINT: X =  0         Y = -1         Z =  1       
  VECTOR      REAL          IMAGINARY     MAGNITUDE     PHASE
 COMPONENT     V/M           V/M           V/M           DEG
   X           0             0             0             0
   Y          -7.364273E-02  .282646       .292083       104.6036
   Z          -.198191       2.752840E-02  .200094       172.0923
   MAXIMUM OR PEAK FIELD =  .307416  V/M

********************NEAR ELECTRIC FIELDS********************
         FIELD POINT: X =  1         Y = -1         Z =  1       
  VECTOR      REAL          IMAGINARY     MAGNITUDE     PHASE
 COMPONENT     V/M           V/M           V/M           DEG
   X           2.724826E-02 -.137479       .140154      -78.78933
   Y          -2.724826E-02  .137479       .140154       101.2107
   Z          -.188388       2.419928E-02  .189936       172.6802
   MAXIMUM OR PEAK FIELD =  .223053  V/M

********************NEAR ELECTRIC FIELDS********************
         FIELD POINT: X = -1         Y =  0         Z =  1       
  VECTOR      REAL          IMAGINARY     MAGNITUDE     PHASE
 COMPONENT     V/M           V/M           V/M           DEG
   X          -7.364273E-02  .282646       .292083       104.6036
   Y           0             0             0             0
   Z          -.198191       2.752840E-02  .200094       172.0923
   MAXIMUM OR PEAK FIELD =  .307416  V/M

********************NEAR ELECTRIC FIELDS********************
         FIELD POINT: X =  0         Y =  0         Z =  1       
  VECTOR      REAL          IMAGINARY     MAGNITUDE     PHASE
 COMPONENT     V/M           V/M           V/M           DEG
   X           0             0             0             0
   Y           0             0             0             0
   Z          -9.712434      36.96103      38.21582      104.723
   MAXIMUM OR PEAK FIELD =  38.21582 V/M

********************NEAR ELECTRIC FIELDS********************
         FIELD POINT: X =  1         Y =  0         Z =  1       
  VECTOR      REAL          IMAGINARY     MAGNITUDE     PHASE
 COMPONENT     V/M           V/M           V/M           DEG
   X           7.364273E-02 -.282646       .292083      -75.39642
   Y           0             0             0             0
   Z          -.198191       2.752840E-02  .200094       172.0923
   MAXIMUM OR PEAK FIELD =  .307416  V/M

********************NEAR ELECTRIC FIELDS********************
         FIELD POINT: X = -1         Y =  1         Z =  1       
  VECTOR      REAL          IMAGINARY     MAGNITUDE     PHASE
 COMPONENT     V/M           V/M           V/M           DEG
   X          -2.724826E-02  .137479       .140154       101.2107
   Y           2.724826E-02 -.137479       .140154      -78.78933
   Z          -.188388       2.419928E-02  .189936       172.6802
   MAXIMUM OR PEAK FIELD =  .223053  V/M

********************NEAR ELECTRIC FIELDS********************
         FIELD POINT: X =  0         Y =  1         Z =  1       
  VECTOR      REAL          IMAGINARY     MAGNITUDE     PHASE
 COMPONENT     V/M           V/M           V/M           DEG
   X           0             0             0             0
   Y           7.364273E-02 -.282646       .292083      -75.39642
   Z          -.198191       2.752840E-02  .200094       172.0923
   MAXIMUM OR PEAK FIELD =  .307416  V/M

********************NEAR ELECTRIC FIELDS********************
         FIELD POINT: X =  1         Y =  1         Z =  1       
  VECTOR      REAL          IMAGINARY     MAGNITUDE     PHASE
 COMPONENT     V/M           V/M           V/M           DEG
   X           2.724826E-02 -.137479       .140154      -78.78933
   Y           2.724826E-02 -.137479       .140154      -78.78933
   Z          -.188388       2.419928E-02  .189936       172.6802
   MAXIMUM OR PEAK FIELD =  .223053  V/M

********************    NEAR FIELDS     ********************

X-COORDINATE (M): INITIAL,INCREMENT,NUMBER : -1 ,  1 ,  3
Y-COORDINATE (M): INITIAL,INCREMENT,NUMBER : -1 ,  1 ,  3
Z-COORDINATE (M): INITIAL,INCREMENT,NUMBER :  0 ,  1 ,  2

********************NEAR MAGNETIC FIELDS********************
         FIELD POINT: X = -1         Y = -1         Z =  0       
  VECTOR      REAL          IMAGINARY     MAGNITUDE     PHASE
 COMPONENT     AMPS/M        AMPS/M        AMPS/M        DEG
   X           2.282653E-03 -6.013100E-05  2.283445E-03 -1.50897
   Y          -2.282653E-03  6.013100E-05  2.283445E-03  178.491
   Z           0             0             0             0
   MAXIMUM OR PEAK FIELD =  3.229279E-03  AMPS/M

********************NEAR MAGNETIC FIELDS********************
         FIELD POINT: X =  0         Y = -1         Z =  0       
  VECTOR      REAL          IMAGINARY     MAGNITUDE     PHASE
 COMPONENT     AMPS/M        AMPS/M        AMPS/M        DEG
   X           4.573626E-03 -7.586669E-05  4.574255E-03 -.950328
   Y           0             0             0             0
   Z           0             0             0             0
   MAXIMUM OR PEAK FIELD =  4.574255E-03  AMPS/M

********************NEAR MAGNETIC FIELDS********************
         FIELD POINT: X =  1         Y = -1         Z =  0       
  VECTOR      REAL          IMAGINARY     MAGNITUDE     PHASE
 COMPONENT     AMPS/M        AMPS/M        AMPS/M        DEG
   X           2.282653E-03 -6.013100E-05  2.283445E-03 -1.50897
   Y           2.282653E-03 -6.013100E-05  2.283445E-03 -1.50897
   Z           0             0             0             0
   MAXIMUM OR PEAK FIELD =  3.229279E-03  AMPS/M

********************NEAR MAGNETIC FIELDS********************
         FIELD POINT: X = -1         Y =  0         Z =  0       
  VECTOR      REAL          IMAGINARY     MAGNITUDE     PHASE
 COMPONENT     AMPS/M        AMPS/M        AMPS/M        DEG
   X           0             0             0             0
   Y          -4.573626E-03  7.586669E-05  4.574255E-03  179.0497
   Z           0             0             0             0
   MAXIMUM OR PEAK FIELD =  4.574255E-03  AMPS/M

********************NEAR MAGNETIC FIELDS********************
         FIELD POINT: X =  0         Y =  0         Z =  0       
  VECTOR      REAL          IMAGINARY     MAGNITUDE     PHASE
 COMPONENT     AMPS/M        AMPS/M        AMPS/M        DEG
   X           0             0             0             0
   Y           0             0             0             0
   Z           0             0             0             0
   MAXIMUM OR PEAK FIELD =  0  AMPS/M

********************NEAR MAGNETIC FIELDS********************
         FIELD POINT: X =  1         Y =  0         Z =  0       
  VECTOR      REAL          IMAGINARY     MAGNITUDE     PHASE
 COMPONENT     AMPS/M        AMPS/M        AMPS/M        DEG
   X           0             0             0             0
   Y           4.573626E-03 -7.586669E-05  4.574255E-03 -.950328
   Z           0             0             0             0
   MAXIMUM OR PEAK FIELD =  4.574255E-03  AMPS/M

********************NEAR MAGNETIC FIELDS********************
         FIELD POINT: X = -1         Y =  1         Z =  0       
  VECTOR      REAL          IMAGINARY     MAGNITUDE     PHASE
 COMPONENT     AMPS/M        AMPS/M        AMPS/M        DEG
   X          -2.282653E-03  6.013100E-05  2.283445E-03  178.491
   Y          -2.282653E-03  6.013100E-05  2.283445E-03  178.491
   Z           0             0             0             0
   MAXIMUM OR PEAK FIELD =  3.229279E-03  AMPS/M

********************NEAR MAGNETIC FIELDS********************
         FIELD POINT: X =  0         Y =  1         Z =  0       
  VECTOR      REAL          IMAGINARY     MAGNITUDE     PHASE
 COMPONENT     AMPS/M        AMPS/M        AMPS/M        DEG
   X          -4.573626E-03  7.586669E-05  4.574255E-03  179.0497
   Y           0             0             0             0
   Z           0             0             0             0
   MAXIMUM OR PEAK FIELD =  4.574255E-03  AMPS/M

********************NEAR MAGNETIC FIELDS********************
         FIELD POINT: X =  1         Y =  1         Z =  0       
  VECTOR      REAL          IMAGINARY     MAGNITUDE     PHASE
 COMPONENT     AMPS/M        AMPS/M        AMPS/M        DEG
   X          -2.282653E-03  6.013100E-05  2.283445E-03  178.491
   Y           2.282653E-03 -6.013100E-05  2.283445E-03 -1.50897
   Z           0             0             0             0
   MAXIMUM OR PEAK FIELD =  3.229279E-03  AMPS/M

********************NEAR MAGNETIC FIELDS********************
         FIELD POINT: X = -1         Y = -1         Z =  1       
  VECTOR      REAL          IMAGINARY     MAGNITUDE     PHASE
 COMPONENT     AMPS/M        AMPS/M        AMPS/M        DEG
   X           2.254995E-03 -6.656913E-05  2.255978E-03 -1.690923
   Y          -2.254995E-03  6.656913E-05  2.255978E-03  178.3091
   Z           0             0             0             0
   MAXIMUM OR PEAK FIELD =  3.190434E-03  AMPS/M

********************NEAR MAGNETIC FIELDS********************
         FIELD POINT: X =  0         Y = -1         Z =  1       
  VECTOR      REAL          IMAGINARY     MAGNITUDE     PHASE
 COMPONENT     AMPS/M        AMPS/M        AMPS/M        DEG
   X           4.516110E-03 -9.485620E-05  4.517106E-03 -1.203262
   Y           0             0             0             0
   Z           0             0             0             0
   MAXIMUM OR PEAK FIELD =  4.517106E-03  AMPS/M

********************NEAR MAGNETIC FIELDS********************
         FIELD POINT: X =  1         Y = -1         Z =  1       
  VECTOR      REAL          IMAGINARY     MAGNITUDE     PHASE
 COMPONENT     AMPS/M        AMPS/M        AMPS/M        DEG
   X           2.254995E-03 -6.656913E-05  2.255978E-03 -1.690923
   Y           2.254995E-03 -6.656913E-05  2.255978E-03 -1.690923
   Z           0             0             0             0
   MAXIMUM OR PEAK FIELD =  3.190434E-03  AMPS/M

********************NEAR MAGNETIC FIELDS********************
         FIELD POINT: X = -1         Y =  0         Z =  1       
  VECTOR      REAL          IMAGINARY     MAGNITUDE     PHASE
 COMPONENT     AMPS/M        AMPS/M        AMPS/M        DEG
   X           0             0             0             0
   Y          -4.516110E-03  9.485620E-05  4.517106E-03  178.7967
   Z           0             0             0             0
   MAXIMUM OR PEAK FIELD =  4.517106E-03  AMPS/M

********************NEAR MAGNETIC FIELDS********************
         FIELD POINT: X =  0         Y =  0         Z =  1       
  VECTOR      REAL          IMAGINARY     MAGNITUDE     PHASE
 COMPONENT     AMPS/M        AMPS/M        AMPS/M        DEG
   X           0             0             0             0
   Y           0             0             0             0
   Z           0             0             0             0
   MAXIMUM OR PEAK FIELD =  0  AMPS/M

********************NEAR MAGNETIC FIELDS********************
         FIELD POINT: X =  1         Y =  0         Z =  1       
  VECTOR      REAL          IMAGINARY     MAGNITUDE     PHASE
 COMPONENT     AMPS/M        AMPS/M        AMPS/M        DEG
   X           0             0             0             0
   Y           4.516110E-03 -9.485620E-05  4.517106E-03 -1.203262
   Z           0             0             0             0
   MAXIMUM OR PEAK FIELD =  4.517106E-03  AMPS/M

********************NEAR MAGNETIC FIELDS********************
         FIELD POINT: X = -1         Y =  1         Z =  1       
  VECTOR      REAL          IMAGINARY     MAGNITUDE     PHASE
 COMPONENT     AMPS/M        AMPS/M        AMPS/M        DEG
   X          -2.254995E-03  6.656913E-05  2.255978E-03  178.3091
   Y          -2.254995E-03  6.656913E-05  2.255978E-03  178.3091
   Z           0             0             0             0
   MAXIMUM OR PEAK FIELD =  3.190434E-03  AMPS/M

********************NEAR MAGNETIC FIELDS********************
         FIELD POINT: X =  0         Y =  1         Z =  1       
  VECTOR      REAL          IMAGINARY     MAGNITUDE     PHASE
 COMPONENT     AMPS/M        AMPS/M        AMPS/M        DEG
   X          -4.516110E-03  9.485620E-05  4.517106E-03  178.7967
   Y           0             0             0             0
   Z           0             0             0             0
   MAXIMUM OR PEAK FIELD =  4.517106E-03  AMPS/M

********************NEAR MAGNETIC FIELDS********************
         FIELD POINT: X =  1         Y =  1         Z =  1       
  VECTOR      REAL          IMAGINARY     MAGNITUDE     PHASE
 COMPONENT     AMPS/M        AMPS/M        AMPS/M        DEG
   X          -2.254995E-03  6.656913E-05  2.255978E-03  178.3091
   Y           2.254995E-03 -6.656913E-05  2.255978E-03 -1.690923
   Z           0             0             0             0
   MAXIMUM OR PEAK FIELD =  3.190434E-03  AMPS/M

