                   ****************************************
                     MINI-NUMERICAL ELECTROMAGNETICS CODE
                                   MININEC
                   ****************************************

FREQUENCY (MHZ): 7.15
    WAVE LENGTH =  41.93007  METERS

NO. OF WIRES: 1

WIRE NO. 1
            COORDINATES                                 END         NO. OF
   X             Y             Z          RADIUS     CONNECTION     SEGMENTS
 0             0             0                         -1
 0             0             10.0838       .0127        0             20

                  **** ANTENNA GEOMETRY ****

WIRE NO.  1  COORDINATES                                CONNECTION PULSE
X             Y             Z             RADIUS        END1 END2  NO.
 0             0             0             .0127        -1    1   1
 0             0             .50419        .0127         1    1   2
 0             0             1.00838       .0127         1    1   3
 0             0             1.51257       .0127         1    1   4
 0             0             2.01676       .0127         1    1   5
 0             0             2.52095       .0127         1    1   6
 0             0             3.02514       .0127         1    1   7
 0             0             3.52933       .0127         1    1   8
 0             0             4.03352       .0127         1    1   9
 0             0             4.53771       .0127         1    1  10
 0             0             5.0419        .0127         1    1  11
 0             0             5.54609       .0127         1    1  12
 0             0             6.05028       .0127         1    1  13
 0             0             6.55447       .0127         1    1  14
 0             0             7.05866       .0127         1    1  15
 0             0             7.56285       .0127         1    1  16
 0             0             8.06704       .0127         1    1  17
 0             0             8.57123       .0127         1    1  18
 0             0             9.07542       .0127         1    1  19
 0             0             9.57961       .0127         1    0  20

NO. OF SOURCES :  1
PULSE NO., VOLTAGE MAGNITUDE, PHASE (DEGREES):  1 , 1 , 0

********************    SOURCE DATA     ********************
PULSE  1      VOLTAGE = ( 1 , 0 J)
              CURRENT = ( 2.790223E-02 , 5.983564E-04 J)
              IMPEDANCE = (  35.82295 , -.768213  J)
              POWER =  1.395112E-02  WATTS
ZENITH ANGLE : INITIAL,INCREMENT,NUMBER:  0 ,  5 , 19
AZIMUTH ANGLE: INITIAL,INCREMENT,NUMBER:  0 , 10 , 37

********************    PATTERN DATA    ********************
ZENITH        AZIMUTH       VERTICAL      HORIZONTAL    TOTAL
 ANGLE         ANGLE        PATTERN (DB)  PATTERN (DB)  PATTERN (DB)
 0             0            -999          -999          -999     
 5             0            -18.4819      -999          -18.4819 
 10            0            -12.44505     -999          -12.44505
 15            0            -8.898141     -999          -8.898141
 20            0            -6.368314     -999          -6.368314
 25            0            -4.396968     -999          -4.396968
 30            0            -2.782812     -999          -2.782812
 35            0            -1.421334     -999          -1.421334
 40            0            -.252799      -999          -.252799 
 45            0             .75894       -999           .75894  
 50            0             1.636484     -999           1.636484
 55            0             2.394179     -999           2.394179
 60            0             3.041149     -999           3.041149
 65            0             3.583138     -999           3.583138
 70            0             4.023691     -999           4.023691
 75            0             4.364926     -999           4.364926
 80            0             4.608055     -999           4.608055
 85            0             4.753729     -999           4.753729
 90            0             4.802257     -999           4.802257
 0             10           -999          -999          -999     
 5             10           -18.4819      -999          -18.4819 
 10            10           -12.44505     -999          -12.44505
 15            10           -8.898141     -999          -8.898141
 20            10           -6.368314     -999          -6.368314
 25            10           -4.396968     -999          -4.396968
 30            10           -2.782812     -999          -2.782812
 35            10           -1.421334     -999          -1.421334
 40            10           -.252799      -999          -.252799 
 45            10            .75894       -999           .75894  
 50            10            1.636484     -999           1.636484
 55            10            2.394179     -999           2.394179
 60            10            3.041149     -999           3.041149
 65            10            3.583138     -999           3.583138
 70            10            4.023691     -999           4.023691
 75            10            4.364926     -999           4.364926
 80            10            4.608055     -999           4.608055
 85            10            4.753729     -999           4.753729
 90            10            4.802257     -999           4.802257
 0             20           -999          -999          -999     
 5             20           -18.4819      -999          -18.4819 
 10            20           -12.44505     -999          -12.44505
 15            20           -8.898141     -999          -8.898141
 20            20           -6.368314     -999          -6.368314
 25            20           -4.396968     -999          -4.396968
 30            20           -2.782812     -999          -2.782812
 35            20           -1.421334     -999          -1.421334
 40            20           -.252799      -999          -.252799 
 45            20            .75894       -999           .75894  
 50            20            1.636484     -999           1.636484
 55            20            2.394179     -999           2.394179
 60            20            3.041149     -999           3.041149
 65            20            3.583138     -999           3.583138
 70            20            4.023691     -999           4.023691
 75            20            4.364926     -999           4.364926
 80            20            4.608055     -999           4.608055
 85            20            4.753729     -999           4.753729
 90            20            4.802257     -999           4.802257
 0             30           -999          -999          -999     
 5             30           -18.4819      -999          -18.4819 
 10            30           -12.44505     -999          -12.44505
 15            30           -8.898141     -999          -8.898141
 20            30           -6.368314     -999          -6.368314
 25            30           -4.396968     -999          -4.396968
 30            30           -2.782812     -999          -2.782812
 35            30           -1.421334     -999          -1.421334
 40            30           -.252799      -999          -.252799 
 45            30            .75894       -999           .75894  
 50            30            1.636484     -999           1.636484
 55            30            2.394179     -999           2.394179
 60            30            3.041149     -999           3.041149
 65            30            3.583138     -999           3.583138
 70            30            4.023691     -999           4.023691
 75            30            4.364926     -999           4.364926
 80            30            4.608055     -999           4.608055
 85            30            4.753729     -999           4.753729
 90            30            4.802257     -999           4.802257
 0             40           -999          -999          -999     
 5             40           -18.4819      -999          -18.4819 
 10            40           -12.44505     -999          -12.44505
 15            40           -8.898141     -999          -8.898141
 20            40           -6.368314     -999          -6.368314
 25            40           -4.396968     -999          -4.396968
 30            40           -2.782812     -999          -2.782812
 35            40           -1.421334     -999          -1.421334
 40            40           -.252799      -999          -.252799 
 45            40            .75894       -999           .75894  
 50            40            1.636484     -999           1.636484
 55            40            2.394179     -999           2.394179
 60            40            3.041149     -999           3.041149
 65            40            3.583138     -999           3.583138
 70            40            4.023691     -999           4.023691
 75            40            4.364926     -999           4.364926
 80            40            4.608055     -999           4.608055
 85            40            4.753729     -999           4.753729
 90            40            4.802257     -999           4.802257
 0             50           -999          -999          -999     
 5             50           -18.4819      -999          -18.4819 
 10            50           -12.44505     -999          -12.44505
 15            50           -8.898141     -999          -8.898141
 20            50           -6.368314     -999          -6.368314
 25            50           -4.396968     -999          -4.396968
 30            50           -2.782812     -999          -2.782812
 35            50           -1.421334     -999          -1.421334
 40            50           -.252799      -999          -.252799 
 45            50            .75894       -999           .75894  
 50            50            1.636484     -999           1.636484
 55            50            2.394179     -999           2.394179
 60            50            3.041149     -999           3.041149
 65            50            3.583138     -999           3.583138
 70            50            4.023691     -999           4.023691
 75            50            4.364926     -999           4.364926
 80            50            4.608055     -999           4.608055
 85            50            4.753729     -999           4.753729
 90            50            4.802257     -999           4.802257
 0             60           -999          -999          -999     
 5             60           -18.4819      -999          -18.4819 
 10            60           -12.44505     -999          -12.44505
 15            60           -8.898141     -999          -8.898141
 20            60           -6.368314     -999          -6.368314
 25            60           -4.396968     -999          -4.396968
 30            60           -2.782812     -999          -2.782812
 35            60           -1.421334     -999          -1.421334
 40            60           -.252799      -999          -.252799 
 45            60            .75894       -999           .75894  
 50            60            1.636484     -999           1.636484
 55            60            2.394179     -999           2.394179
 60            60            3.041149     -999           3.041149
 65            60            3.583138     -999           3.583138
 70            60            4.023691     -999           4.023691
 75            60            4.364926     -999           4.364926
 80            60            4.608055     -999           4.608055
 85            60            4.753729     -999           4.753729
 90            60            4.802257     -999           4.802257
 0             70           -999          -999          -999     
 5             70           -18.4819      -999          -18.4819 
 10            70           -12.44505     -999          -12.44505
 15            70           -8.898141     -999          -8.898141
 20            70           -6.368314     -999          -6.368314
 25            70           -4.396968     -999          -4.396968
 30            70           -2.782812     -999          -2.782812
 35            70           -1.421334     -999          -1.421334
 40            70           -.252799      -999          -.252799 
 45            70            .75894       -999           .75894  
 50            70            1.636484     -999           1.636484
 55            70            2.394179     -999           2.394179
 60            70            3.041149     -999           3.041149
 65            70            3.583138     -999           3.583138
 70            70            4.023691     -999           4.023691
 75            70            4.364926     -999           4.364926
 80            70            4.608055     -999           4.608055
 85            70            4.753729     -999           4.753729
 90            70            4.802257     -999           4.802257
 0             80           -999          -999          -999     
 5             80           -18.4819      -999          -18.4819 
 10            80           -12.44505     -999          -12.44505
 15            80           -8.898141     -999          -8.898141
 20            80           -6.368314     -999          -6.368314
 25            80           -4.396968     -999          -4.396968
 30            80           -2.782812     -999          -2.782812
 35            80           -1.421334     -999          -1.421334
 40            80           -.252799      -999          -.252799 
 45            80            .75894       -999           .75894  
 50            80            1.636484     -999           1.636484
 55            80            2.394179     -999           2.394179
 60            80            3.041149     -999           3.041149
 65            80            3.583138     -999           3.583138
 70            80            4.023691     -999           4.023691
 75            80            4.364926     -999           4.364926
 80            80            4.608055     -999           4.608055
 85            80            4.753729     -999           4.753729
 90            80            4.802257     -999           4.802257
 0             90           -999          -999          -999     
 5             90           -18.4819      -999          -18.4819 
 10            90           -12.44505     -999          -12.44505
 15            90           -8.898141     -999          -8.898141
 20            90           -6.368314     -999          -6.368314
 25            90           -4.396968     -999          -4.396968
 30            90           -2.782812     -999          -2.782812
 35            90           -1.421334     -999          -1.421334
 40            90           -.252799      -999          -.252799 
 45            90            .75894       -999           .75894  
 50            90            1.636484     -999           1.636484
 55            90            2.394179     -999           2.394179
 60            90            3.041149     -999           3.041149
 65            90            3.583138     -999           3.583138
 70            90            4.023691     -999           4.023691
 75            90            4.364926     -999           4.364926
 80            90            4.608055     -999           4.608055
 85            90            4.753729     -999           4.753729
 90            90            4.802257     -999           4.802257
 0             100          -999          -999          -999     
 5             100          -18.4819      -999          -18.4819 
 10            100          -12.44505     -999          -12.44505
 15            100          -8.898141     -999          -8.898141
 20            100          -6.368314     -999          -6.368314
 25            100          -4.396968     -999          -4.396968
 30            100          -2.782812     -999          -2.782812
 35            100          -1.421334     -999          -1.421334
 40            100          -.252799      -999          -.252799 
 45            100           .75894       -999           .75894  
 50            100           1.636484     -999           1.636484
 55            100           2.394179     -999           2.394179
 60            100           3.041149     -999           3.041149
 65            100           3.583138     -999           3.583138
 70            100           4.023691     -999           4.023691
 75            100           4.364926     -999           4.364926
 80            100           4.608055     -999           4.608055
 85            100           4.753729     -999           4.753729
 90            100           4.802257     -999           4.802257
 0             110          -999          -999          -999     
 5             110          -18.4819      -999          -18.4819 
 10            110          -12.44505     -999          -12.44505
 15            110          -8.898141     -999          -8.898141
 20            110          -6.368314     -999          -6.368314
 25            110          -4.396968     -999          -4.396968
 30            110          -2.782812     -999          -2.782812
 35            110          -1.421334     -999          -1.421334
 40            110          -.252799      -999          -.252799 
 45            110           .75894       -999           .75894  
 50            110           1.636484     -999           1.636484
 55            110           2.394179     -999           2.394179
 60            110           3.041149     -999           3.041149
 65            110           3.583138     -999           3.583138
 70            110           4.023691     -999           4.023691
 75            110           4.364926     -999           4.364926
 80            110           4.608055     -999           4.608055
 85            110           4.753729     -999           4.753729
 90            110           4.802257     -999           4.802257
 0             120          -999          -999          -999     
 5             120          -18.4819      -999          -18.4819 
 10            120          -12.44505     -999          -12.44505
 15            120          -8.898141     -999          -8.898141
 20            120          -6.368314     -999          -6.368314
 25            120          -4.396968     -999          -4.396968
 30            120          -2.782812     -999          -2.782812
 35            120          -1.421334     -999          -1.421334
 40            120          -.252799      -999          -.252799 
 45            120           .75894       -999           .75894  
 50            120           1.636484     -999           1.636484
 55            120           2.394179     -999           2.394179
 60            120           3.041149     -999           3.041149
 65            120           3.583138     -999           3.583138
 70            120           4.023691     -999           4.023691
 75            120           4.364926     -999           4.364926
 80            120           4.608055     -999           4.608055
 85            120           4.753729     -999           4.753729
 90            120           4.802257     -999           4.802257
 0             130          -999          -999          -999     
 5             130          -18.4819      -999          -18.4819 
 10            130          -12.44505     -999          -12.44505
 15            130          -8.898141     -999          -8.898141
 20            130          -6.368314     -999          -6.368314
 25            130          -4.396968     -999          -4.396968
 30            130          -2.782812     -999          -2.782812
 35            130          -1.421334     -999          -1.421334
 40            130          -.252799      -999          -.252799 
 45            130           .75894       -999           .75894  
 50            130           1.636484     -999           1.636484
 55            130           2.394179     -999           2.394179
 60            130           3.041149     -999           3.041149
 65            130           3.583138     -999           3.583138
 70            130           4.023691     -999           4.023691
 75            130           4.364926     -999           4.364926
 80            130           4.608055     -999           4.608055
 85            130           4.753729     -999           4.753729
 90            130           4.802257     -999           4.802257
 0             140          -999          -999          -999     
 5             140          -18.4819      -999          -18.4819 
 10            140          -12.44505     -999          -12.44505
 15            140          -8.898141     -999          -8.898141
 20            140          -6.368314     -999          -6.368314
 25            140          -4.396968     -999          -4.396968
 30            140          -2.782812     -999          -2.782812
 35            140          -1.421334     -999          -1.421334
 40            140          -.252799      -999          -.252799 
 45            140           .75894       -999           .75894  
 50            140           1.636484     -999           1.636484
 55            140           2.394179     -999           2.394179
 60            140           3.041149     -999           3.041149
 65            140           3.583138     -999           3.583138
 70            140           4.023691     -999           4.023691
 75            140           4.364926     -999           4.364926
 80            140           4.608055     -999           4.608055
 85            140           4.753729     -999           4.753729
 90            140           4.802257     -999           4.802257
 0             150          -999          -999          -999     
 5             150          -18.4819      -999          -18.4819 
 10            150          -12.44505     -999          -12.44505
 15            150          -8.898141     -999          -8.898141
 20            150          -6.368314     -999          -6.368314
 25            150          -4.396968     -999          -4.396968
 30            150          -2.782812     -999          -2.782812
 35            150          -1.421334     -999          -1.421334
 40            150          -.252799      -999          -.252799 
 45            150           .75894       -999           .75894  
 50            150           1.636484     -999           1.636484
 55            150           2.394179     -999           2.394179
 60            150           3.041149     -999           3.041149
 65            150           3.583138     -999           3.583138
 70            150           4.023691     -999           4.023691
 75            150           4.364926     -999           4.364926
 80            150           4.608055     -999           4.608055
 85            150           4.753729     -999           4.753729
 90            150           4.802257     -999           4.802257
 0             160          -999          -999          -999     
 5             160          -18.4819      -999          -18.4819 
 10            160          -12.44505     -999          -12.44505
 15            160          -8.898141     -999          -8.898141
 20            160          -6.368314     -999          -6.368314
 25            160          -4.396968     -999          -4.396968
 30            160          -2.782812     -999          -2.782812
 35            160          -1.421334     -999          -1.421334
 40            160          -.252799      -999          -.252799 
 45            160           .75894       -999           .75894  
 50            160           1.636484     -999           1.636484
 55            160           2.394179     -999           2.394179
 60            160           3.041149     -999           3.041149
 65            160           3.583138     -999           3.583138
 70            160           4.023691     -999           4.023691
 75            160           4.364926     -999           4.364926
 80            160           4.608055     -999           4.608055
 85            160           4.753729     -999           4.753729
 90            160           4.802257     -999           4.802257
 0             170          -999          -999          -999     
 5             170          -18.4819      -999          -18.4819 
 10            170          -12.44505     -999          -12.44505
 15            170          -8.898141     -999          -8.898141
 20            170          -6.368314     -999          -6.368314
 25            170          -4.396968     -999          -4.396968
 30            170          -2.782812     -999          -2.782812
 35            170          -1.421334     -999          -1.421334
 40            170          -.252799      -999          -.252799 
 45            170           .75894       -999           .75894  
 50            170           1.636484     -999           1.636484
 55            170           2.394179     -999           2.394179
 60            170           3.041149     -999           3.041149
 65            170           3.583138     -999           3.583138
 70            170           4.023691     -999           4.023691
 75            170           4.364926     -999           4.364926
 80            170           4.608055     -999           4.608055
 85            170           4.753729     -999           4.753729
 90            170           4.802257     -999           4.802257
 0             180          -999          -999          -999     
 5             180          -18.4819      -999          -18.4819 
 10            180          -12.44505     -999          -12.44505
 15            180          -8.898141     -999          -8.898141
 20            180          -6.368314     -999          -6.368314
 25            180          -4.396968     -999          -4.396968
 30            180          -2.782812     -999          -2.782812
 35            180          -1.421334     -999          -1.421334
 40            180          -.252799      -999          -.252799 
 45            180           .75894       -999           .75894  
 50            180           1.636484     -999           1.636484
 55            180           2.394179     -999           2.394179
 60            180           3.041149     -999           3.041149
 65            180           3.583138     -999           3.583138
 70            180           4.023691     -999           4.023691
 75            180           4.364926     -999           4.364926
 80            180           4.608055     -999           4.608055
 85            180           4.753729     -999           4.753729
 90            180           4.802257     -999           4.802257
 0             190          -999          -999          -999     
 5             190          -18.4819      -999          -18.4819 
 10            190          -12.44505     -999          -12.44505
 15            190          -8.898141     -999          -8.898141
 20            190          -6.368314     -999          -6.368314
 25            190          -4.396968     -999          -4.396968
 30            190          -2.782812     -999          -2.782812
 35            190          -1.421334     -999          -1.421334
 40            190          -.252799      -999          -.252799 
 45            190           .75894       -999           .75894  
 50            190           1.636484     -999           1.636484
 55            190           2.394179     -999           2.394179
 60            190           3.041149     -999           3.041149
 65            190           3.583138     -999           3.583138
 70            190           4.023691     -999           4.023691
 75            190           4.364926     -999           4.364926
 80            190           4.608055     -999           4.608055
 85            190           4.753729     -999           4.753729
 90            190           4.802257     -999           4.802257
 0             200          -999          -999          -999     
 5             200          -18.4819      -999          -18.4819 
 10            200          -12.44505     -999          -12.44505
 15            200          -8.898141     -999          -8.898141
 20            200          -6.368314     -999          -6.368314
 25            200          -4.396968     -999          -4.396968
 30            200          -2.782812     -999          -2.782812
 35            200          -1.421334     -999          -1.421334
 40            200          -.252799      -999          -.252799 
 45            200           .75894       -999           .75894  
 50            200           1.636484     -999           1.636484
 55            200           2.394179     -999           2.394179
 60            200           3.041149     -999           3.041149
 65            200           3.583138     -999           3.583138
 70            200           4.023691     -999           4.023691
 75            200           4.364926     -999           4.364926
 80            200           4.608055     -999           4.608055
 85            200           4.753729     -999           4.753729
 90            200           4.802257     -999           4.802257
 0             210          -999          -999          -999     
 5             210          -18.4819      -999          -18.4819 
 10            210          -12.44505     -999          -12.44505
 15            210          -8.898141     -999          -8.898141
 20            210          -6.368314     -999          -6.368314
 25            210          -4.396968     -999          -4.396968
 30            210          -2.782812     -999          -2.782812
 35            210          -1.421334     -999          -1.421334
 40            210          -.252799      -999          -.252799 
 45            210           .75894       -999           .75894  
 50            210           1.636484     -999           1.636484
 55            210           2.394179     -999           2.394179
 60            210           3.041149     -999           3.041149
 65            210           3.583138     -999           3.583138
 70            210           4.023691     -999           4.023691
 75            210           4.364926     -999           4.364926
 80            210           4.608055     -999           4.608055
 85            210           4.753729     -999           4.753729
 90            210           4.802257     -999           4.802257
 0             220          -999          -999          -999     
 5             220          -18.4819      -999          -18.4819 
 10            220          -12.44505     -999          -12.44505
 15            220          -8.898141     -999          -8.898141
 20            220          -6.368314     -999          -6.368314
 25            220          -4.396968     -999          -4.396968
 30            220          -2.782812     -999          -2.782812
 35            220          -1.421334     -999          -1.421334
 40            220          -.252799      -999          -.252799 
 45            220           .75894       -999           .75894  
 50            220           1.636484     -999           1.636484
 55            220           2.394179     -999           2.394179
 60            220           3.041149     -999           3.041149
 65            220           3.583138     -999           3.583138
 70            220           4.023691     -999           4.023691
 75            220           4.364926     -999           4.364926
 80            220           4.608055     -999           4.608055
 85            220           4.753729     -999           4.753729
 90            220           4.802257     -999           4.802257
 0             230          -999          -999          -999     
 5             230          -18.4819      -999          -18.4819 
 10            230          -12.44505     -999          -12.44505
 15            230          -8.898141     -999          -8.898141
 20            230          -6.368314     -999          -6.368314
 25            230          -4.396968     -999          -4.396968
 30            230          -2.782812     -999          -2.782812
 35            230          -1.421334     -999          -1.421334
 40            230          -.252799      -999          -.252799 
 45            230           .75894       -999           .75894  
 50            230           1.636484     -999           1.636484
 55            230           2.394179     -999           2.394179
 60            230           3.041149     -999           3.041149
 65            230           3.583138     -999           3.583138
 70            230           4.023691     -999           4.023691
 75            230           4.364926     -999           4.364926
 80            230           4.608055     -999           4.608055
 85            230           4.753729     -999           4.753729
 90            230           4.802257     -999           4.802257
 0             240          -999          -999          -999     
 5             240          -18.4819      -999          -18.4819 
 10            240          -12.44505     -999          -12.44505
 15            240          -8.898141     -999          -8.898141
 20            240          -6.368314     -999          -6.368314
 25            240          -4.396968     -999          -4.396968
 30            240          -2.782812     -999          -2.782812
 35            240          -1.421334     -999          -1.421334
 40            240          -.252799      -999          -.252799 
 45            240           .75894       -999           .75894  
 50            240           1.636484     -999           1.636484
 55            240           2.394179     -999           2.394179
 60            240           3.041149     -999           3.041149
 65            240           3.583138     -999           3.583138
 70            240           4.023691     -999           4.023691
 75            240           4.364926     -999           4.364926
 80            240           4.608055     -999           4.608055
 85            240           4.753729     -999           4.753729
 90            240           4.802257     -999           4.802257
 0             250          -999          -999          -999     
 5             250          -18.4819      -999          -18.4819 
 10            250          -12.44505     -999          -12.44505
 15            250          -8.898141     -999          -8.898141
 20            250          -6.368314     -999          -6.368314
 25            250          -4.396968     -999          -4.396968
 30            250          -2.782812     -999          -2.782812
 35            250          -1.421334     -999          -1.421334
 40            250          -.252799      -999          -.252799 
 45            250           .75894       -999           .75894  
 50            250           1.636484     -999           1.636484
 55            250           2.394179     -999           2.394179
 60            250           3.041149     -999           3.041149
 65            250           3.583138     -999           3.583138
 70            250           4.023691     -999           4.023691
 75            250           4.364926     -999           4.364926
 80            250           4.608055     -999           4.608055
 85            250           4.753729     -999           4.753729
 90            250           4.802257     -999           4.802257
 0             260          -999          -999          -999     
 5             260          -18.4819      -999          -18.4819 
 10            260          -12.44505     -999          -12.44505
 15            260          -8.898141     -999          -8.898141
 20            260          -6.368314     -999          -6.368314
 25            260          -4.396968     -999          -4.396968
 30            260          -2.782812     -999          -2.782812
 35            260          -1.421334     -999          -1.421334
 40            260          -.252799      -999          -.252799 
 45            260           .75894       -999           .75894  
 50            260           1.636484     -999           1.636484
 55            260           2.394179     -999           2.394179
 60            260           3.041149     -999           3.041149
 65            260           3.583138     -999           3.583138
 70            260           4.023691     -999           4.023691
 75            260           4.364926     -999           4.364926
 80            260           4.608055     -999           4.608055
 85            260           4.753729     -999           4.753729
 90            260           4.802257     -999           4.802257
 0             270          -999          -999          -999     
 5             270          -18.4819      -999          -18.4819 
 10            270          -12.44505     -999          -12.44505
 15            270          -8.898141     -999          -8.898141
 20            270          -6.368314     -999          -6.368314
 25            270          -4.396968     -999          -4.396968
 30            270          -2.782812     -999          -2.782812
 35            270          -1.421334     -999          -1.421334
 40            270          -.252799      -999          -.252799 
 45            270           .75894       -999           .75894  
 50            270           1.636484     -999           1.636484
 55            270           2.394179     -999           2.394179
 60            270           3.041149     -999           3.041149
 65            270           3.583138     -999           3.583138
 70            270           4.023691     -999           4.023691
 75            270           4.364926     -999           4.364926
 80            270           4.608055     -999           4.608055
 85            270           4.753729     -999           4.753729
 90            270           4.802257     -999           4.802257
 0             280          -999          -999          -999     
 5             280          -18.4819      -999          -18.4819 
 10            280          -12.44505     -999          -12.44505
 15            280          -8.898141     -999          -8.898141
 20            280          -6.368314     -999          -6.368314
 25            280          -4.396968     -999          -4.396968
 30            280          -2.782812     -999          -2.782812
 35            280          -1.421334     -999          -1.421334
 40            280          -.252799      -999          -.252799 
 45            280           .75894       -999           .75894  
 50            280           1.636484     -999           1.636484
 55            280           2.394179     -999           2.394179
 60            280           3.041149     -999           3.041149
 65            280           3.583138     -999           3.583138
 70            280           4.023691     -999           4.023691
 75            280           4.364926     -999           4.364926
 80            280           4.608055     -999           4.608055
 85            280           4.753729     -999           4.753729
 90            280           4.802257     -999           4.802257
 0             290          -999          -999          -999     
 5             290          -18.4819      -999          -18.4819 
 10            290          -12.44505     -999          -12.44505
 15            290          -8.898141     -999          -8.898141
 20            290          -6.368314     -999          -6.368314
 25            290          -4.396968     -999          -4.396968
 30            290          -2.782812     -999          -2.782812
 35            290          -1.421334     -999          -1.421334
 40            290          -.252799      -999          -.252799 
 45            290           .75894       -999           .75894  
 50            290           1.636484     -999           1.636484
 55            290           2.394179     -999           2.394179
 60            290           3.041149     -999           3.041149
 65            290           3.583138     -999           3.583138
 70            290           4.023691     -999           4.023691
 75            290           4.364926     -999           4.364926
 80            290           4.608055     -999           4.608055
 85            290           4.753729     -999           4.753729
 90            290           4.802257     -999           4.802257
 0             300          -999          -999          -999     
 5             300          -18.4819      -999          -18.4819 
 10            300          -12.44505     -999          -12.44505
 15            300          -8.898141     -999          -8.898141
 20            300          -6.368314     -999          -6.368314
 25            300          -4.396968     -999          -4.396968
 30            300          -2.782812     -999          -2.782812
 35            300          -1.421334     -999          -1.421334
 40            300          -.252799      -999          -.252799 
 45            300           .75894       -999           .75894  
 50            300           1.636484     -999           1.636484
 55            300           2.394179     -999           2.394179
 60            300           3.041149     -999           3.041149
 65            300           3.583138     -999           3.583138
 70            300           4.023691     -999           4.023691
 75            300           4.364926     -999           4.364926
 80            300           4.608055     -999           4.608055
 85            300           4.753729     -999           4.753729
 90            300           4.802257     -999           4.802257
 0             310          -999          -999          -999     
 5             310          -18.4819      -999          -18.4819 
 10            310          -12.44505     -999          -12.44505
 15            310          -8.898141     -999          -8.898141
 20            310          -6.368314     -999          -6.368314
 25            310          -4.396968     -999          -4.396968
 30            310          -2.782812     -999          -2.782812
 35            310          -1.421334     -999          -1.421334
 40            310          -.252799      -999          -.252799 
 45            310           .75894       -999           .75894  
 50            310           1.636484     -999           1.636484
 55            310           2.394179     -999           2.394179
 60            310           3.041149     -999           3.041149
 65            310           3.583138     -999           3.583138
 70            310           4.023691     -999           4.023691
 75            310           4.364926     -999           4.364926
 80            310           4.608055     -999           4.608055
 85            310           4.753729     -999           4.753729
 90            310           4.802257     -999           4.802257
 0             320          -999          -999          -999     
 5             320          -18.4819      -999          -18.4819 
 10            320          -12.44505     -999          -12.44505
 15            320          -8.898141     -999          -8.898141
 20            320          -6.368314     -999          -6.368314
 25            320          -4.396968     -999          -4.396968
 30            320          -2.782812     -999          -2.782812
 35            320          -1.421334     -999          -1.421334
 40            320          -.252799      -999          -.252799 
 45            320           .75894       -999           .75894  
 50            320           1.636484     -999           1.636484
 55            320           2.394179     -999           2.394179
 60            320           3.041149     -999           3.041149
 65            320           3.583138     -999           3.583138
 70            320           4.023691     -999           4.023691
 75            320           4.364926     -999           4.364926
 80            320           4.608055     -999           4.608055
 85            320           4.753729     -999           4.753729
 90            320           4.802257     -999           4.802257
 0             330          -999          -999          -999     
 5             330          -18.4819      -999          -18.4819 
 10            330          -12.44505     -999          -12.44505
 15            330          -8.898141     -999          -8.898141
 20            330          -6.368314     -999          -6.368314
 25            330          -4.396968     -999          -4.396968
 30            330          -2.782812     -999          -2.782812
 35            330          -1.421334     -999          -1.421334
 40            330          -.252799      -999          -.252799 
 45            330           .75894       -999           .75894  
 50            330           1.636484     -999           1.636484
 55            330           2.394179     -999           2.394179
 60            330           3.041149     -999           3.041149
 65            330           3.583138     -999           3.583138
 70            330           4.023691     -999           4.023691
 75            330           4.364926     -999           4.364926
 80            330           4.608055     -999           4.608055
 85            330           4.753729     -999           4.753729
 90            330           4.802257     -999           4.802257
 0             340          -999          -999          -999     
 5             340          -18.4819      -999          -18.4819 
 10            340          -12.44505     -999          -12.44505
 15            340          -8.898141     -999          -8.898141
 20            340          -6.368314     -999          -6.368314
 25            340          -4.396968     -999          -4.396968
 30            340          -2.782812     -999          -2.782812
 35            340          -1.421334     -999          -1.421334
 40            340          -.252799      -999          -.252799 
 45            340           .75894       -999           .75894  
 50            340           1.636484     -999           1.636484
 55            340           2.394179     -999           2.394179
 60            340           3.041149     -999           3.041149
 65            340           3.583138     -999           3.583138
 70            340           4.023691     -999           4.023691
 75            340           4.364926     -999           4.364926
 80            340           4.608055     -999           4.608055
 85            340           4.753729     -999           4.753729
 90            340           4.802257     -999           4.802257
 0             350          -999          -999          -999     
 5             350          -18.4819      -999          -18.4819 
 10            350          -12.44505     -999          -12.44505
 15            350          -8.898141     -999          -8.898141
 20            350          -6.368314     -999          -6.368314
 25            350          -4.396968     -999          -4.396968
 30            350          -2.782812     -999          -2.782812
 35            350          -1.421334     -999          -1.421334
 40            350          -.252799      -999          -.252799 
 45            350           .75894       -999           .75894  
 50            350           1.636484     -999           1.636484
 55            350           2.394179     -999           2.394179
 60            350           3.041149     -999           3.041149
 65            350           3.583138     -999           3.583138
 70            350           4.023691     -999           4.023691
 75            350           4.364926     -999           4.364926
 80            350           4.608055     -999           4.608055
 85            350           4.753729     -999           4.753729
 90            350           4.802257     -999           4.802257
 0             360          -999          -999          -999     
 5             360          -18.4819      -999          -18.4819 
 10            360          -12.44505     -999          -12.44505
 15            360          -8.898141     -999          -8.898141
 20            360          -6.368314     -999          -6.368314
 25            360          -4.396968     -999          -4.396968
 30            360          -2.782812     -999          -2.782812
 35            360          -1.421334     -999          -1.421334
 40            360          -.252799      -999          -.252799 
 45            360           .75894       -999           .75894  
 50            360           1.636484     -999           1.636484
 55            360           2.394179     -999           2.394179
 60            360           3.041149     -999           3.041149
 65            360           3.583138     -999           3.583138
 70            360           4.023691     -999           4.023691
 75            360           4.364926     -999           4.364926
 80            360           4.608055     -999           4.608055
 85            360           4.753729     -999           4.753729
 90            360           4.802257     -999           4.802257
