                   ****************************************
                     MINI-NUMERICAL ELECTROMAGNETICS CODE
                                   MININEC
                   ****************************************

FREQUENCY (MHZ): 7.15
    WAVE LENGTH =  41.93007  METERS

ENVIRONMENT (+1 FOR FREE SPACE, -1 FOR GROUND PLANE): -1
 NUMBER OF MEDIA (0 FOR PERFECTLY CONDUCTING GROUND):  0

NO. OF WIRES: 1

WIRE NO. 1
            COORDINATES                                 END         NO. OF
   X             Y             Z          RADIUS     CONNECTION     SEGMENTS
 0             0             10.0838                    0
 0             0             0             .0127       -1             20

                  **** ANTENNA GEOMETRY ****

WIRE NO.  1  COORDINATES                                CONNECTION PULSE
X             Y             Z             RADIUS        END1 END2  NO.
 0             0             9.57961       .0127         0    1   1
 0             0             9.07542       .0127         1    1   2
 0             0             8.57123       .0127         1    1   3
 0             0             8.06704       .0127         1    1   4
 0             0             7.56285       .0127         1    1   5
 0             0             7.05866       .0127         1    1   6
 0             0             6.55447       .0127         1    1   7
 0             0             6.05028       .0127         1    1   8
 0             0             5.54609       .0127         1    1   9
 0             0             5.0419        .0127         1    1  10
 0             0             4.53771       .0127         1    1  11
 0             0             4.03352       .0127         1    1  12
 0             0             3.52933       .0127         1    1  13
 0             0             3.02514       .0127         1    1  14
 0             0             2.52095       .0127         1    1  15
 0             0             2.01676       .0127         1    1  16
 0             0             1.51257       .0127         1    1  17
 0             0             1.00838       .0127         1    1  18
 0             0             .50419        .0127         1    1  19
 0             0             0             .0127         1   -1  20

NO. OF SOURCES :  1
PULSE NO., VOLTAGE MAGNITUDE, PHASE (DEGREES): 20 , 1 , 0
NUMBER OF LOADS 0

********************    SOURCE DATA     ********************
PULSE 20      VOLTAGE = ( 1 , 0 J)
              CURRENT = ( 2.790223E-02 ,  5.983554E-04 J)
              IMPEDANCE = ( 35.82295 , -.768213  J)
              POWER =  1.395112E-02  WATTS

********************    CURRENT DATA    ********************

WIRE NO.  1 :
PULSE         REAL          IMAGINARY     MAGNITUDE     PHASE
 NO.          (AMPS)        (AMPS)        (AMPS)        (DEGREES)
E              0             0             0             0
 1             2.783613E-03 -2.178557E-04  2.792125E-03 -4.475055 
 2             5.170176E-03 -3.878206E-04  5.184701E-03 -4.289786 
 3             7.416101E-03 -5.318898E-04  7.435151E-03 -4.102283 
 4             9.556737E-03 -6.532698E-04  9.579039E-03 -3.910484 
 5             1.160152E-02 -7.529423E-04  1.162593E-02 -3.713306 
 6             1.355088E-02 -8.311341E-04  1.357634E-02 -3.509802 
 7             1.540139E-02 -8.877703E-04  1.542695E-02 -3.299006 
 8             1.714782E-02 -9.226518E-04  1.717262E-02 -3.079874 
 9             1.878412E-02 -9.355349E-04  1.880740E-02 -2.851235 
 10            2.030392E-02 -9.261679E-04  2.032504E-02 -2.611749 
 11            2.170089E-02 -8.943034E-04  2.171931E-02 -2.359849 
 12            2.296892E-02 -8.396918E-04  2.298426E-02 -2.093672 
 13            2.410227E-02 -7.620543E-04  2.411432E-02 -1.810948 
 14            2.509570E-02 -6.610283E-04  2.510441E-02 -1.508839 
 15            2.594454E-02 -5.360616E-04  2.595007E-02 -1.183667 
 16            2.664471E-02 -3.862024E-04  2.664751E-02 -.830417  
 17            2.719286E-02 -2.096381E-04  2.719366E-02 -.441702  
 18            2.758631E-02 -2.485464E-06  2.758631E-02 -5.162221E-03 
 19            2.782316E-02  2.452593E-04  2.782424E-02  .505045  
 20            2.790223E-02  5.983554E-04  2.790865E-02  1.228503 

********************     FAR FIELD      ********************

ZENITH ANGLE : INITIAL,INCREMENT,NUMBER: 0 , 5 , 19
AZIMUTH ANGLE: INITIAL,INCREMENT,NUMBER: 0 , 10 , 37

********************    PATTERN DATA    ********************
ZENITH        AZIMUTH       VERTICAL      HORIZONTAL    TOTAL
 ANGLE         ANGLE        PATTERN (DB)  PATTERN (DB)  PATTERN (DB)
 0             0            -999          -999          -999     
 5             0            -18.05377     -999          -18.05377
 10            0            -12.0193      -999          -12.0193 
 15            0            -8.476216     -999          -8.476216
 20            0            -5.95152      -999          -5.95152 
 25            0            -3.986387     -999          -3.986387
 30            0            -2.379277     -999          -2.379277
 35            0            -1.025412     -999          -1.025412
 40            0             .135214      -999           .135214 
 45            0             1.139012     -999           1.139012
 50            0             2.008825     -999           2.008825
 55            0             2.759219     -999           2.759219
 60            0             3.399506     -999           3.399506
 65            0             3.935591     -999           3.935591
 70            0             4.371148     -999           4.371148
 75            0             4.708398     -999           4.708398
 80            0             4.948629     -999           4.948629
 85            0             5.092543     -999           5.092543
 90            0             5.140482     -999           5.140482
 0             10           -999          -999          -999     
 5             10           -18.05377     -999          -18.05377
 10            10           -12.0193      -999          -12.0193 
 15            10           -8.476216     -999          -8.476216
 20            10           -5.95152      -999          -5.95152 
 25            10           -3.986387     -999          -3.986387
 30            10           -2.379277     -999          -2.379277
 35            10           -1.025412     -999          -1.025412
 40            10            .135214      -999           .135214 
 45            10            1.139012     -999           1.139012
 50            10            2.008825     -999           2.008825
 55            10            2.759219     -999           2.759219
 60            10            3.399506     -999           3.399506
 65            10            3.935591     -999           3.935591
 70            10            4.371148     -999           4.371148
 75            10            4.708398     -999           4.708398
 80            10            4.948629     -999           4.948629
 85            10            5.092543     -999           5.092543
 90            10            5.140482     -999           5.140482
 0             20           -999          -999          -999     
 5             20           -18.05377     -999          -18.05377
 10            20           -12.0193      -999          -12.0193 
 15            20           -8.476216     -999          -8.476216
 20            20           -5.95152      -999          -5.95152 
 25            20           -3.986387     -999          -3.986387
 30            20           -2.379277     -999          -2.379277
 35            20           -1.025412     -999          -1.025412
 40            20            .135214      -999           .135214 
 45            20            1.139012     -999           1.139012
 50            20            2.008825     -999           2.008825
 55            20            2.759219     -999           2.759219
 60            20            3.399506     -999           3.399506
 65            20            3.935591     -999           3.935591
 70            20            4.371148     -999           4.371148
 75            20            4.708398     -999           4.708398
 80            20            4.948629     -999           4.948629
 85            20            5.092543     -999           5.092543
 90            20            5.140482     -999           5.140482
 0             30           -999          -999          -999     
 5             30           -18.05377     -999          -18.05377
 10            30           -12.0193      -999          -12.0193 
 15            30           -8.476216     -999          -8.476216
 20            30           -5.95152      -999          -5.95152 
 25            30           -3.986387     -999          -3.986387
 30            30           -2.379277     -999          -2.379277
 35            30           -1.025412     -999          -1.025412
 40            30            .135214      -999           .135214 
 45            30            1.139012     -999           1.139012
 50            30            2.008825     -999           2.008825
 55            30            2.759219     -999           2.759219
 60            30            3.399506     -999           3.399506
 65            30            3.935591     -999           3.935591
 70            30            4.371148     -999           4.371148
 75            30            4.708398     -999           4.708398
 80            30            4.948629     -999           4.948629
 85            30            5.092543     -999           5.092543
 90            30            5.140482     -999           5.140482
 0             40           -999          -999          -999     
 5             40           -18.05377     -999          -18.05377
 10            40           -12.0193      -999          -12.0193 
 15            40           -8.476216     -999          -8.476216
 20            40           -5.95152      -999          -5.95152 
 25            40           -3.986387     -999          -3.986387
 30            40           -2.379277     -999          -2.379277
 35            40           -1.025412     -999          -1.025412
 40            40            .135214      -999           .135214 
 45            40            1.139012     -999           1.139012
 50            40            2.008825     -999           2.008825
 55            40            2.759219     -999           2.759219
 60            40            3.399506     -999           3.399506
 65            40            3.935591     -999           3.935591
 70            40            4.371148     -999           4.371148
 75            40            4.708398     -999           4.708398
 80            40            4.948629     -999           4.948629
 85            40            5.092543     -999           5.092543
 90            40            5.140482     -999           5.140482
 0             50           -999          -999          -999     
 5             50           -18.05377     -999          -18.05377
 10            50           -12.0193      -999          -12.0193 
 15            50           -8.476216     -999          -8.476216
 20            50           -5.95152      -999          -5.95152 
 25            50           -3.986387     -999          -3.986387
 30            50           -2.379277     -999          -2.379277
 35            50           -1.025412     -999          -1.025412
 40            50            .135214      -999           .135214 
 45            50            1.139012     -999           1.139012
 50            50            2.008825     -999           2.008825
 55            50            2.759219     -999           2.759219
 60            50            3.399506     -999           3.399506
 65            50            3.935591     -999           3.935591
 70            50            4.371148     -999           4.371148
 75            50            4.708398     -999           4.708398
 80            50            4.948629     -999           4.948629
 85            50            5.092543     -999           5.092543
 90            50            5.140482     -999           5.140482
 0             60           -999          -999          -999     
 5             60           -18.05377     -999          -18.05377
 10            60           -12.0193      -999          -12.0193 
 15            60           -8.476216     -999          -8.476216
 20            60           -5.95152      -999          -5.95152 
 25            60           -3.986387     -999          -3.986387
 30            60           -2.379277     -999          -2.379277
 35            60           -1.025412     -999          -1.025412
 40            60            .135214      -999           .135214 
 45            60            1.139012     -999           1.139012
 50            60            2.008825     -999           2.008825
 55            60            2.759219     -999           2.759219
 60            60            3.399506     -999           3.399506
 65            60            3.935591     -999           3.935591
 70            60            4.371148     -999           4.371148
 75            60            4.708398     -999           4.708398
 80            60            4.948629     -999           4.948629
 85            60            5.092543     -999           5.092543
 90            60            5.140482     -999           5.140482
 0             70           -999          -999          -999     
 5             70           -18.05377     -999          -18.05377
 10            70           -12.0193      -999          -12.0193 
 15            70           -8.476216     -999          -8.476216
 20            70           -5.95152      -999          -5.95152 
 25            70           -3.986387     -999          -3.986387
 30            70           -2.379277     -999          -2.379277
 35            70           -1.025412     -999          -1.025412
 40            70            .135214      -999           .135214 
 45            70            1.139012     -999           1.139012
 50            70            2.008825     -999           2.008825
 55            70            2.759219     -999           2.759219
 60            70            3.399506     -999           3.399506
 65            70            3.935591     -999           3.935591
 70            70            4.371148     -999           4.371148
 75            70            4.708398     -999           4.708398
 80            70            4.948629     -999           4.948629
 85            70            5.092543     -999           5.092543
 90            70            5.140482     -999           5.140482
 0             80           -999          -999          -999     
 5             80           -18.05377     -999          -18.05377
 10            80           -12.0193      -999          -12.0193 
 15            80           -8.476216     -999          -8.476216
 20            80           -5.95152      -999          -5.95152 
 25            80           -3.986387     -999          -3.986387
 30            80           -2.379277     -999          -2.379277
 35            80           -1.025412     -999          -1.025412
 40            80            .135214      -999           .135214 
 45            80            1.139012     -999           1.139012
 50            80            2.008825     -999           2.008825
 55            80            2.759219     -999           2.759219
 60            80            3.399506     -999           3.399506
 65            80            3.935591     -999           3.935591
 70            80            4.371148     -999           4.371148
 75            80            4.708398     -999           4.708398
 80            80            4.948629     -999           4.948629
 85            80            5.092543     -999           5.092543
 90            80            5.140482     -999           5.140482
 0             90           -999          -999          -999     
 5             90           -18.05377     -999          -18.05377
 10            90           -12.0193      -999          -12.0193 
 15            90           -8.476216     -999          -8.476216
 20            90           -5.95152      -999          -5.95152 
 25            90           -3.986387     -999          -3.986387
 30            90           -2.379277     -999          -2.379277
 35            90           -1.025412     -999          -1.025412
 40            90            .135214      -999           .135214 
 45            90            1.139012     -999           1.139012
 50            90            2.008825     -999           2.008825
 55            90            2.759219     -999           2.759219
 60            90            3.399506     -999           3.399506
 65            90            3.935591     -999           3.935591
 70            90            4.371148     -999           4.371148
 75            90            4.708398     -999           4.708398
 80            90            4.948629     -999           4.948629
 85            90            5.092543     -999           5.092543
 90            90            5.140482     -999           5.140482
 0             100          -999          -999          -999     
 5             100          -18.05377     -999          -18.05377
 10            100          -12.0193      -999          -12.0193 
 15            100          -8.476216     -999          -8.476216
 20            100          -5.95152      -999          -5.95152 
 25            100          -3.986387     -999          -3.986387
 30            100          -2.379277     -999          -2.379277
 35            100          -1.025412     -999          -1.025412
 40            100           .135214      -999           .135214 
 45            100           1.139012     -999           1.139012
 50            100           2.008825     -999           2.008825
 55            100           2.759219     -999           2.759219
 60            100           3.399506     -999           3.399506
 65            100           3.935591     -999           3.935591
 70            100           4.371148     -999           4.371148
 75            100           4.708398     -999           4.708398
 80            100           4.948629     -999           4.948629
 85            100           5.092543     -999           5.092543
 90            100           5.140482     -999           5.140482
 0             110          -999          -999          -999     
 5             110          -18.05377     -999          -18.05377
 10            110          -12.0193      -999          -12.0193 
 15            110          -8.476216     -999          -8.476216
 20            110          -5.95152      -999          -5.95152 
 25            110          -3.986387     -999          -3.986387
 30            110          -2.379277     -999          -2.379277
 35            110          -1.025412     -999          -1.025412
 40            110           .135214      -999           .135214 
 45            110           1.139012     -999           1.139012
 50            110           2.008825     -999           2.008825
 55            110           2.759219     -999           2.759219
 60            110           3.399506     -999           3.399506
 65            110           3.935591     -999           3.935591
 70            110           4.371148     -999           4.371148
 75            110           4.708398     -999           4.708398
 80            110           4.948629     -999           4.948629
 85            110           5.092543     -999           5.092543
 90            110           5.140482     -999           5.140482
 0             120          -999          -999          -999     
 5             120          -18.05377     -999          -18.05377
 10            120          -12.0193      -999          -12.0193 
 15            120          -8.476216     -999          -8.476216
 20            120          -5.95152      -999          -5.95152 
 25            120          -3.986387     -999          -3.986387
 30            120          -2.379277     -999          -2.379277
 35            120          -1.025412     -999          -1.025412
 40            120           .135214      -999           .135214 
 45            120           1.139012     -999           1.139012
 50            120           2.008825     -999           2.008825
 55            120           2.759219     -999           2.759219
 60            120           3.399506     -999           3.399506
 65            120           3.935591     -999           3.935591
 70            120           4.371148     -999           4.371148
 75            120           4.708398     -999           4.708398
 80            120           4.948629     -999           4.948629
 85            120           5.092543     -999           5.092543
 90            120           5.140482     -999           5.140482
 0             130          -999          -999          -999     
 5             130          -18.05377     -999          -18.05377
 10            130          -12.0193      -999          -12.0193 
 15            130          -8.476216     -999          -8.476216
 20            130          -5.95152      -999          -5.95152 
 25            130          -3.986387     -999          -3.986387
 30            130          -2.379277     -999          -2.379277
 35            130          -1.025412     -999          -1.025412
 40            130           .135214      -999           .135214 
 45            130           1.139012     -999           1.139012
 50            130           2.008825     -999           2.008825
 55            130           2.759219     -999           2.759219
 60            130           3.399506     -999           3.399506
 65            130           3.935591     -999           3.935591
 70            130           4.371148     -999           4.371148
 75            130           4.708398     -999           4.708398
 80            130           4.948629     -999           4.948629
 85            130           5.092543     -999           5.092543
 90            130           5.140482     -999           5.140482
 0             140          -999          -999          -999     
 5             140          -18.05377     -999          -18.05377
 10            140          -12.0193      -999          -12.0193 
 15            140          -8.476216     -999          -8.476216
 20            140          -5.95152      -999          -5.95152 
 25            140          -3.986387     -999          -3.986387
 30            140          -2.379277     -999          -2.379277
 35            140          -1.025412     -999          -1.025412
 40            140           .135214      -999           .135214 
 45            140           1.139012     -999           1.139012
 50            140           2.008825     -999           2.008825
 55            140           2.759219     -999           2.759219
 60            140           3.399506     -999           3.399506
 65            140           3.935591     -999           3.935591
 70            140           4.371148     -999           4.371148
 75            140           4.708398     -999           4.708398
 80            140           4.948629     -999           4.948629
 85            140           5.092543     -999           5.092543
 90            140           5.140482     -999           5.140482
 0             150          -999          -999          -999     
 5             150          -18.05377     -999          -18.05377
 10            150          -12.0193      -999          -12.0193 
 15            150          -8.476216     -999          -8.476216
 20            150          -5.95152      -999          -5.95152 
 25            150          -3.986387     -999          -3.986387
 30            150          -2.379277     -999          -2.379277
 35            150          -1.025412     -999          -1.025412
 40            150           .135214      -999           .135214 
 45            150           1.139012     -999           1.139012
 50            150           2.008825     -999           2.008825
 55            150           2.759219     -999           2.759219
 60            150           3.399506     -999           3.399506
 65            150           3.935591     -999           3.935591
 70            150           4.371148     -999           4.371148
 75            150           4.708398     -999           4.708398
 80            150           4.948629     -999           4.948629
 85            150           5.092543     -999           5.092543
 90            150           5.140482     -999           5.140482
 0             160          -999          -999          -999     
 5             160          -18.05377     -999          -18.05377
 10            160          -12.0193      -999          -12.0193 
 15            160          -8.476216     -999          -8.476216
 20            160          -5.95152      -999          -5.95152 
 25            160          -3.986387     -999          -3.986387
 30            160          -2.379277     -999          -2.379277
 35            160          -1.025412     -999          -1.025412
 40            160           .135214      -999           .135214 
 45            160           1.139012     -999           1.139012
 50            160           2.008825     -999           2.008825
 55            160           2.759219     -999           2.759219
 60            160           3.399506     -999           3.399506
 65            160           3.935591     -999           3.935591
 70            160           4.371148     -999           4.371148
 75            160           4.708398     -999           4.708398
 80            160           4.948629     -999           4.948629
 85            160           5.092543     -999           5.092543
 90            160           5.140482     -999           5.140482
 0             170          -999          -999          -999     
 5             170          -18.05377     -999          -18.05377
 10            170          -12.0193      -999          -12.0193 
 15            170          -8.476216     -999          -8.476216
 20            170          -5.95152      -999          -5.95152 
 25            170          -3.986387     -999          -3.986387
 30            170          -2.379277     -999          -2.379277
 35            170          -1.025412     -999          -1.025412
 40            170           .135214      -999           .135214 
 45            170           1.139012     -999           1.139012
 50            170           2.008825     -999           2.008825
 55            170           2.759219     -999           2.759219
 60            170           3.399506     -999           3.399506
 65            170           3.935591     -999           3.935591
 70            170           4.371148     -999           4.371148
 75            170           4.708398     -999           4.708398
 80            170           4.948629     -999           4.948629
 85            170           5.092543     -999           5.092543
 90            170           5.140482     -999           5.140482
 0             180          -999          -999          -999     
 5             180          -18.05377     -999          -18.05377
 10            180          -12.0193      -999          -12.0193 
 15            180          -8.476216     -999          -8.476216
 20            180          -5.95152      -999          -5.95152 
 25            180          -3.986387     -999          -3.986387
 30            180          -2.379277     -999          -2.379277
 35            180          -1.025412     -999          -1.025412
 40            180           .135214      -999           .135214 
 45            180           1.139012     -999           1.139012
 50            180           2.008825     -999           2.008825
 55            180           2.759219     -999           2.759219
 60            180           3.399506     -999           3.399506
 65            180           3.935591     -999           3.935591
 70            180           4.371148     -999           4.371148
 75            180           4.708398     -999           4.708398
 80            180           4.948629     -999           4.948629
 85            180           5.092543     -999           5.092543
 90            180           5.140482     -999           5.140482
 0             190          -999          -999          -999     
 5             190          -18.05377     -999          -18.05377
 10            190          -12.0193      -999          -12.0193 
 15            190          -8.476216     -999          -8.476216
 20            190          -5.95152      -999          -5.95152 
 25            190          -3.986387     -999          -3.986387
 30            190          -2.379277     -999          -2.379277
 35            190          -1.025412     -999          -1.025412
 40            190           .135214      -999           .135214 
 45            190           1.139012     -999           1.139012
 50            190           2.008825     -999           2.008825
 55            190           2.759219     -999           2.759219
 60            190           3.399506     -999           3.399506
 65            190           3.935591     -999           3.935591
 70            190           4.371148     -999           4.371148
 75            190           4.708398     -999           4.708398
 80            190           4.948629     -999           4.948629
 85            190           5.092543     -999           5.092543
 90            190           5.140482     -999           5.140482
 0             200          -999          -999          -999     
 5             200          -18.05377     -999          -18.05377
 10            200          -12.0193      -999          -12.0193 
 15            200          -8.476216     -999          -8.476216
 20            200          -5.95152      -999          -5.95152 
 25            200          -3.986387     -999          -3.986387
 30            200          -2.379277     -999          -2.379277
 35            200          -1.025412     -999          -1.025412
 40            200           .135214      -999           .135214 
 45            200           1.139012     -999           1.139012
 50            200           2.008825     -999           2.008825
 55            200           2.759219     -999           2.759219
 60            200           3.399506     -999           3.399506
 65            200           3.935591     -999           3.935591
 70            200           4.371148     -999           4.371148
 75            200           4.708398     -999           4.708398
 80            200           4.948629     -999           4.948629
 85            200           5.092543     -999           5.092543
 90            200           5.140482     -999           5.140482
 0             210          -999          -999          -999     
 5             210          -18.05377     -999          -18.05377
 10            210          -12.0193      -999          -12.0193 
 15            210          -8.476216     -999          -8.476216
 20            210          -5.95152      -999          -5.95152 
 25            210          -3.986387     -999          -3.986387
 30            210          -2.379277     -999          -2.379277
 35            210          -1.025412     -999          -1.025412
 40            210           .135214      -999           .135214 
 45            210           1.139012     -999           1.139012
 50            210           2.008825     -999           2.008825
 55            210           2.759219     -999           2.759219
 60            210           3.399506     -999           3.399506
 65            210           3.935591     -999           3.935591
 70            210           4.371148     -999           4.371148
 75            210           4.708398     -999           4.708398
 80            210           4.948629     -999           4.948629
 85            210           5.092543     -999           5.092543
 90            210           5.140482     -999           5.140482
 0             220          -999          -999          -999     
 5             220          -18.05377     -999          -18.05377
 10            220          -12.0193      -999          -12.0193 
 15            220          -8.476216     -999          -8.476216
 20            220          -5.95152      -999          -5.95152 
 25            220          -3.986387     -999          -3.986387
 30            220          -2.379277     -999          -2.379277
 35            220          -1.025412     -999          -1.025412
 40            220           .135214      -999           .135214 
 45            220           1.139012     -999           1.139012
 50            220           2.008825     -999           2.008825
 55            220           2.759219     -999           2.759219
 60            220           3.399506     -999           3.399506
 65            220           3.935591     -999           3.935591
 70            220           4.371148     -999           4.371148
 75            220           4.708398     -999           4.708398
 80            220           4.948629     -999           4.948629
 85            220           5.092543     -999           5.092543
 90            220           5.140482     -999           5.140482
 0             230          -999          -999          -999     
 5             230          -18.05377     -999          -18.05377
 10            230          -12.0193      -999          -12.0193 
 15            230          -8.476216     -999          -8.476216
 20            230          -5.95152      -999          -5.95152 
 25            230          -3.986387     -999          -3.986387
 30            230          -2.379277     -999          -2.379277
 35            230          -1.025412     -999          -1.025412
 40            230           .135214      -999           .135214 
 45            230           1.139012     -999           1.139012
 50            230           2.008825     -999           2.008825
 55            230           2.759219     -999           2.759219
 60            230           3.399506     -999           3.399506
 65            230           3.935591     -999           3.935591
 70            230           4.371148     -999           4.371148
 75            230           4.708398     -999           4.708398
 80            230           4.948629     -999           4.948629
 85            230           5.092543     -999           5.092543
 90            230           5.140482     -999           5.140482
 0             240          -999          -999          -999     
 5             240          -18.05377     -999          -18.05377
 10            240          -12.0193      -999          -12.0193 
 15            240          -8.476216     -999          -8.476216
 20            240          -5.95152      -999          -5.95152 
 25            240          -3.986387     -999          -3.986387
 30            240          -2.379277     -999          -2.379277
 35            240          -1.025412     -999          -1.025412
 40            240           .135214      -999           .135214 
 45            240           1.139012     -999           1.139012
 50            240           2.008825     -999           2.008825
 55            240           2.759219     -999           2.759219
 60            240           3.399506     -999           3.399506
 65            240           3.935591     -999           3.935591
 70            240           4.371148     -999           4.371148
 75            240           4.708398     -999           4.708398
 80            240           4.948629     -999           4.948629
 85            240           5.092543     -999           5.092543
 90            240           5.140482     -999           5.140482
 0             250          -999          -999          -999     
 5             250          -18.05377     -999          -18.05377
 10            250          -12.0193      -999          -12.0193 
 15            250          -8.476216     -999          -8.476216
 20            250          -5.95152      -999          -5.95152 
 25            250          -3.986387     -999          -3.986387
 30            250          -2.379277     -999          -2.379277
 35            250          -1.025412     -999          -1.025412
 40            250           .135214      -999           .135214 
 45            250           1.139012     -999           1.139012
 50            250           2.008825     -999           2.008825
 55            250           2.759219     -999           2.759219
 60            250           3.399506     -999           3.399506
 65            250           3.935591     -999           3.935591
 70            250           4.371148     -999           4.371148
 75            250           4.708398     -999           4.708398
 80            250           4.948629     -999           4.948629
 85            250           5.092543     -999           5.092543
 90            250           5.140482     -999           5.140482
 0             260          -999          -999          -999     
 5             260          -18.05377     -999          -18.05377
 10            260          -12.0193      -999          -12.0193 
 15            260          -8.476216     -999          -8.476216
 20            260          -5.95152      -999          -5.95152 
 25            260          -3.986387     -999          -3.986387
 30            260          -2.379277     -999          -2.379277
 35            260          -1.025412     -999          -1.025412
 40            260           .135214      -999           .135214 
 45            260           1.139012     -999           1.139012
 50            260           2.008825     -999           2.008825
 55            260           2.759219     -999           2.759219
 60            260           3.399506     -999           3.399506
 65            260           3.935591     -999           3.935591
 70            260           4.371148     -999           4.371148
 75            260           4.708398     -999           4.708398
 80            260           4.948629     -999           4.948629
 85            260           5.092543     -999           5.092543
 90            260           5.140482     -999           5.140482
 0             270          -999          -999          -999     
 5             270          -18.05377     -999          -18.05377
 10            270          -12.0193      -999          -12.0193 
 15            270          -8.476216     -999          -8.476216
 20            270          -5.95152      -999          -5.95152 
 25            270          -3.986387     -999          -3.986387
 30            270          -2.379277     -999          -2.379277
 35            270          -1.025412     -999          -1.025412
 40            270           .135214      -999           .135214 
 45            270           1.139012     -999           1.139012
 50            270           2.008825     -999           2.008825
 55            270           2.759219     -999           2.759219
 60            270           3.399506     -999           3.399506
 65            270           3.935591     -999           3.935591
 70            270           4.371148     -999           4.371148
 75            270           4.708398     -999           4.708398
 80            270           4.948629     -999           4.948629
 85            270           5.092543     -999           5.092543
 90            270           5.140482     -999           5.140482
 0             280          -999          -999          -999     
 5             280          -18.05377     -999          -18.05377
 10            280          -12.0193      -999          -12.0193 
 15            280          -8.476216     -999          -8.476216
 20            280          -5.95152      -999          -5.95152 
 25            280          -3.986387     -999          -3.986387
 30            280          -2.379277     -999          -2.379277
 35            280          -1.025412     -999          -1.025412
 40            280           .135214      -999           .135214 
 45            280           1.139012     -999           1.139012
 50            280           2.008825     -999           2.008825
 55            280           2.759219     -999           2.759219
 60            280           3.399506     -999           3.399506
 65            280           3.935591     -999           3.935591
 70            280           4.371148     -999           4.371148
 75            280           4.708398     -999           4.708398
 80            280           4.948629     -999           4.948629
 85            280           5.092543     -999           5.092543
 90            280           5.140482     -999           5.140482
 0             290          -999          -999          -999     
 5             290          -18.05377     -999          -18.05377
 10            290          -12.0193      -999          -12.0193 
 15            290          -8.476216     -999          -8.476216
 20            290          -5.95152      -999          -5.95152 
 25            290          -3.986387     -999          -3.986387
 30            290          -2.379277     -999          -2.379277
 35            290          -1.025412     -999          -1.025412
 40            290           .135214      -999           .135214 
 45            290           1.139012     -999           1.139012
 50            290           2.008825     -999           2.008825
 55            290           2.759219     -999           2.759219
 60            290           3.399506     -999           3.399506
 65            290           3.935591     -999           3.935591
 70            290           4.371148     -999           4.371148
 75            290           4.708398     -999           4.708398
 80            290           4.948629     -999           4.948629
 85            290           5.092543     -999           5.092543
 90            290           5.140482     -999           5.140482
 0             300          -999          -999          -999     
 5             300          -18.05377     -999          -18.05377
 10            300          -12.0193      -999          -12.0193 
 15            300          -8.476216     -999          -8.476216
 20            300          -5.95152      -999          -5.95152 
 25            300          -3.986387     -999          -3.986387
 30            300          -2.379277     -999          -2.379277
 35            300          -1.025412     -999          -1.025412
 40            300           .135214      -999           .135214 
 45            300           1.139012     -999           1.139012
 50            300           2.008825     -999           2.008825
 55            300           2.759219     -999           2.759219
 60            300           3.399506     -999           3.399506
 65            300           3.935591     -999           3.935591
 70            300           4.371148     -999           4.371148
 75            300           4.708398     -999           4.708398
 80            300           4.948629     -999           4.948629
 85            300           5.092543     -999           5.092543
 90            300           5.140482     -999           5.140482
 0             310          -999          -999          -999     
 5             310          -18.05377     -999          -18.05377
 10            310          -12.0193      -999          -12.0193 
 15            310          -8.476216     -999          -8.476216
 20            310          -5.95152      -999          -5.95152 
 25            310          -3.986387     -999          -3.986387
 30            310          -2.379277     -999          -2.379277
 35            310          -1.025412     -999          -1.025412
 40            310           .135214      -999           .135214 
 45            310           1.139012     -999           1.139012
 50            310           2.008825     -999           2.008825
 55            310           2.759219     -999           2.759219
 60            310           3.399506     -999           3.399506
 65            310           3.935591     -999           3.935591
 70            310           4.371148     -999           4.371148
 75            310           4.708398     -999           4.708398
 80            310           4.948629     -999           4.948629
 85            310           5.092543     -999           5.092543
 90            310           5.140482     -999           5.140482
 0             320          -999          -999          -999     
 5             320          -18.05377     -999          -18.05377
 10            320          -12.0193      -999          -12.0193 
 15            320          -8.476216     -999          -8.476216
 20            320          -5.95152      -999          -5.95152 
 25            320          -3.986387     -999          -3.986387
 30            320          -2.379277     -999          -2.379277
 35            320          -1.025412     -999          -1.025412
 40            320           .135214      -999           .135214 
 45            320           1.139012     -999           1.139012
 50            320           2.008825     -999           2.008825
 55            320           2.759219     -999           2.759219
 60            320           3.399506     -999           3.399506
 65            320           3.935591     -999           3.935591
 70            320           4.371148     -999           4.371148
 75            320           4.708398     -999           4.708398
 80            320           4.948629     -999           4.948629
 85            320           5.092543     -999           5.092543
 90            320           5.140482     -999           5.140482
 0             330          -999          -999          -999     
 5             330          -18.05377     -999          -18.05377
 10            330          -12.0193      -999          -12.0193 
 15            330          -8.476216     -999          -8.476216
 20            330          -5.95152      -999          -5.95152 
 25            330          -3.986387     -999          -3.986387
 30            330          -2.379277     -999          -2.379277
 35            330          -1.025412     -999          -1.025412
 40            330           .135214      -999           .135214 
 45            330           1.139012     -999           1.139012
 50            330           2.008825     -999           2.008825
 55            330           2.759219     -999           2.759219
 60            330           3.399506     -999           3.399506
 65            330           3.935591     -999           3.935591
 70            330           4.371148     -999           4.371148
 75            330           4.708398     -999           4.708398
 80            330           4.948629     -999           4.948629
 85            330           5.092543     -999           5.092543
 90            330           5.140482     -999           5.140482
 0             340          -999          -999          -999     
 5             340          -18.05377     -999          -18.05377
 10            340          -12.0193      -999          -12.0193 
 15            340          -8.476216     -999          -8.476216
 20            340          -5.95152      -999          -5.95152 
 25            340          -3.986387     -999          -3.986387
 30            340          -2.379277     -999          -2.379277
 35            340          -1.025412     -999          -1.025412
 40            340           .135214      -999           .135214 
 45            340           1.139012     -999           1.139012
 50            340           2.008825     -999           2.008825
 55            340           2.759219     -999           2.759219
 60            340           3.399506     -999           3.399506
 65            340           3.935591     -999           3.935591
 70            340           4.371148     -999           4.371148
 75            340           4.708398     -999           4.708398
 80            340           4.948629     -999           4.948629
 85            340           5.092543     -999           5.092543
 90            340           5.140482     -999           5.140482
 0             350          -999          -999          -999     
 5             350          -18.05377     -999          -18.05377
 10            350          -12.0193      -999          -12.0193 
 15            350          -8.476216     -999          -8.476216
 20            350          -5.95152      -999          -5.95152 
 25            350          -3.986387     -999          -3.986387
 30            350          -2.379277     -999          -2.379277
 35            350          -1.025412     -999          -1.025412
 40            350           .135214      -999           .135214 
 45            350           1.139012     -999           1.139012
 50            350           2.008825     -999           2.008825
 55            350           2.759219     -999           2.759219
 60            350           3.399506     -999           3.399506
 65            350           3.935591     -999           3.935591
 70            350           4.371148     -999           4.371148
 75            350           4.708398     -999           4.708398
 80            350           4.948629     -999           4.948629
 85            350           5.092543     -999           5.092543
 90            350           5.140482     -999           5.140482
 0             360          -999          -999          -999     
 5             360          -18.05377     -999          -18.05377
 10            360          -12.0193      -999          -12.0193 
 15            360          -8.476216     -999          -8.476216
 20            360          -5.95152      -999          -5.95152 
 25            360          -3.986387     -999          -3.986387
 30            360          -2.379277     -999          -2.379277
 35            360          -1.025412     -999          -1.025412
 40            360           .135214      -999           .135214 
 45            360           1.139012     -999           1.139012
 50            360           2.008825     -999           2.008825
 55            360           2.759219     -999           2.759219
 60            360           3.399506     -999           3.399506
 65            360           3.935591     -999           3.935591
 70            360           4.371148     -999           4.371148
 75            360           4.708398     -999           4.708398
 80            360           4.948629     -999           4.948629
 85            360           5.092543     -999           5.092543
 90            360           5.140482     -999           5.140482
