                   ****************************************
                     MINI-NUMERICAL ELECTROMAGNETICS CODE
                                   MININEC
                       2024-09-21              13:38:41
                   ****************************************
 
FREQUENCY (MHZ): 7.15
    WAVE LENGTH =  41.93007 METERS
 
ENVIRONMENT (+1 FOR FREE SPACE, -1 FOR GROUND PLANE): -1
 NUMBER OF MEDIA (0 FOR PERFECTLY CONDUCTING GROUND):  2
 TYPE OF BOUNDARY (1-LINEAR, 2-CIRCULAR):  1
 RELATIVE DIELECTRIC CONSTANT, CONDUCTIVITY:  20, .0303
 X OR R COORDINATE OF NEXT MEDIA INTERFACE:  5
 RELATIVE DIELECTRIC CONSTANT, CONDUCTIVITY:  20, .0303
 HEIGHT OF MEDIA: -20
 
NO. OF WIRES: 1
 
WIRE NO.1
            COORDINATES                                 END         NO. OF
   X             Y             Z          RADIUS     CONNECTION     SEGMENTS
 0             0             0                          -1
 0             0             10.0838       .0127         0             20
 
                  **** ANTENNA GEOMETRY ****
 
WIRE NO.  1 COORDINATES                                 CONNECTION PULSE
X             Y             Z             RADIUS        END1 END2  NO.
 0             0             0             .0127         -1    1    1
 0             0             .50419        .0127          1    1    2
 0             0             1.00838       .0127          1    1    3
 0             0             1.51257       .0127          1    1    4
 0             0             2.01676       .0127          1    1    5
 0             0             2.52095       .0127          1    1    6
 0             0             3.02514       .0127          1    1    7
 0             0             3.52933       .0127          1    1    8
 0             0             4.03352       .0127          1    1    9
 0             0             4.53771       .0127          1    1   10
 0             0             5.0419        .0127          1    1   11
 0             0             5.54609       .0127          1    1   12
 0             0             6.05028       .0127          1    1   13
 0             0             6.55447       .0127          1    1   14
 0             0             7.05866       .0127          1    1   15
 0             0             7.56285       .0127          1    1   16
 0             0             8.06704       .0127          1    1   17
 0             0             8.57123       .0127          1    1   18
 0             0             9.07542       .0127          1    1   19
 0             0             9.57961       .0127          1    0   20
 
NO. OF SOURCES :  1
PULSE NO., VOLTAGE MAGNITUDE, PHASE (DEGREES):  1, 1, 0
NUMBER OF LOADS 0
 
********************    SOURCE DATA     ********************
PULSE  1      VOLTAGE = ( 1, 0J)
              CURRENT = ( .02790223, 5.983541E-04J)
              IMPEDANCE = ( 35.822952,-.7682113J)
              POWER =  .01395112 WATTS
 
********************    CURRENT DATA    ********************
 
WIRE NO. 1:
PULSE         REAL          IMAGINARY     MAGNITUDE     PHASE
 NO.          (AMPS)        (AMPS)        (AMPS)        (DEGREES)
 1             .02790223     5.983541E-04  .02790865     1.2285007
 2             .02782316     2.452581E-04  .02782424     .50504291
 3             .02758631    -2.486705E-06  .02758631    -.0051648
 4             .02719286    -2.096393E-04  .02719366    -.4417046
 5             .02664471    -3.862036E-04  .02664751    -.83041948
 6             .02594454    -5.360627E-04  .02595007    -1.1836698
 7             .0250957     -6.610295E-04  .02510441    -1.5088416
 8             .02410227    -7.620554E-04  .02411432    -1.8109504
 9             .02296892    -8.396928E-04  .02298426    -2.0936745
 10            .02170089    -8.943044E-04  .02171931    -2.3598518
 11            .02030392    -9.261688E-04  .02032504    -2.6117515
 12            .01878412    -9.355357E-04  .0188074     -2.8512379
 13            .01714782    -9.226526E-04  .01717262    -3.0798767
 14            .01540139    -8.877710E-04  .01542695    -3.2990087
 15            .01355088    -8.311347E-04  .01357634    -3.5098042
 16            .01160152    -7.529428E-04  .01162593    -3.7133085
 17            .00955674    -6.532702E-04  .00957904    -3.9104864
 18            .0074161     -5.318901E-04  .00743515    -4.1022857
 19            .00517018    -3.878208E-04  .0051847     -4.2897885
 20            .00278361    -2.178558E-04  .00279213    -4.4750573
E              0             0             0             0
 
********************     FAR FIELD      ********************
 
ZENITH ANGLE : INITIAL,INCREMENT,NUMBER:  0, 10, 10
AZIMUTH ANGLE: INITIAL,INCREMENT,NUMBER:  0, 10, 37
 
 
********************    PATTERN DATA    ********************
ZENITH        AZIMUTH       VERTICAL      HORIZONTAL    TOTAL
 ANGLE         ANGLE        PATTERN (DB)  PATTERN (DB)  PATTERN (DB)
 0             0            -999          -999          -999
 10            0            -13.104256    -999          -13.104256
 20            0            -7.0683731    -999          -7.0683731
 30            0            -3.4739241    -999          -3.4739241
 40            0            -.73835628    -999          -.73835628
 50            0            -.13275617    -999          -.13275617
 60            0            -2.4242322    -999          -2.4242322
 70            0            -4.0528886    -999          -4.0528886
 80            0            -1.8601124    -999          -1.8601124
 90            0            -23.208497    -999          -23.208497
 0             10           -999          -999          -999
 10            10           -13.104256    -999          -13.104256
 20            10           -7.0683731    -999          -7.0683731
 30            10           -3.4739241    -999          -3.4739241
 40            10           -.79550651    -999          -.79550651
 50            10           -.13275617    -999          -.13275617
 60            10           -2.4242322    -999          -2.4242322
 70            10           -4.0528886    -999          -4.0528886
 80            10           -1.8601124    -999          -1.8601124
 90            10           -23.208497    -999          -23.208497
 0             20           -999          -999          -999
 10            20           -13.104256    -999          -13.104256
 20            20           -7.0683731    -999          -7.0683731
 30            20           -3.5262736    -999          -3.5262736
 40            20           -.79550651    -999          -.79550651
 50            20           -.13275617    -999          -.13275617
 60            20           -1.8532392    -999          -1.8532392
 70            20           -4.0528886    -999          -4.0528886
 80            20           -1.8601124    -999          -1.8601124
 90            20           -23.208497    -999          -23.208497
 0             30           -999          -999          -999
 10            30           -13.104256    -999          -13.104256
 20            30           -7.0683731    -999          -7.0683731
 30            30           -3.5561923    -999          -3.5561923
 40            30           -.85500312    -999          -.85500312
 50            30           -.00947408    -999          -.00947408
 60            30           -1.8532392    -999          -1.8532392
 70            30           -3.2185004    -999          -3.2185004
 80            30           -1.5966974    -999          -1.5966974
 90            30           -23.208497    -999          -23.208497
 0             40           -999          -999          -999
 10            40           -13.104256    -999          -13.104256
 20            40           -7.0683731    -999          -7.0683731
 30            40           -3.5561923    -999          -3.5561923
 40            40           -.97491954    -999          -.97491954
 50            40            .10530978    -999           .10530978
 60            40           -1.3257194    -999          -1.3257194
 70            40           -3.2185004    -999          -3.2185004
 80            40           -1.5966974    -999          -1.5966974
 90            40           -23.208497    -999          -23.208497
 0             50           -999          -999          -999
 10            50           -13.104256    -999          -13.104256
 20            50           -7.0683731    -999          -7.0683731
 30            50           -3.5561923    -999          -3.5561923
 40            50           -1.1195165    -999          -1.1195165
 50            50            .30071483    -999           .30071483
 60            50           -.84368902    -999          -.84368902
 70            50           -2.4744342    -999          -2.4744342
 80            50           -1.5966974    -999          -1.5966974
 90            50           -23.208497    -999          -23.208497
 0             60           -999          -999          -999
 10            60           -13.104256    -999          -13.104256
 20            60           -7.0683731    -999          -7.0683731
 30            60           -3.5561923    -999          -3.5561923
 40            60           -1.1431301    -999          -1.1431301
 50            60            .52439801    -999           .52439801
 60            60            .32910257    -999           .32910257
 70            60           -1.2160282    -999          -1.2160282
 80            60           -1.3416821    -999          -1.3416821
 90            60           -23.208497    -999          -23.208497
 0             70           -999          -999          -999
 10            70           -13.104256    -999          -13.104256
 20            70           -7.0683731    -999          -7.0683731
 30            70           -3.5561923    -999          -3.5561923
 40            70           -1.1431301    -999          -1.1431301
 50            70            .56058038    -999           .56058038
 60            70            1.4371419    -999           1.4371419
 70            70            .20508561    -999           .20508561
 80            70           -.86219003    -999          -.86219003
 90            70           -23.208497    -999          -23.208497
 0             80           -999          -999          -999
 10            80           -13.104256    -999          -13.104256
 20            80           -7.0683731    -999          -7.0683731
 30            80           -3.5561923    -999          -3.5561923
 40            80           -1.1431301    -999          -1.1431301
 50            80            .56058038    -999           .56058038
 60            80            1.6509414    -999           1.6509414
 70            80            2.0159455    -999           2.0159455
 80            80            .11584144    -999           .11584144
 90            80           -23.208497    -999          -23.208497
 0             90           -999          -999          -999
 10            90           -13.104256    -999          -13.104256
 20            90           -7.0683731    -999          -7.0683731
 30            90           -3.5561923    -999          -3.5561923
 40            90           -1.1431301    -999          -1.1431301
 50            90            .56058038    -999           .56058038
 60            90            1.6509414    -999           1.6509414
 70            90            2.0159455    -999           2.0159455
 80            90            .91530025    -999           .91530025
 90            90           -23.208497    -999          -23.208497
 0             100          -999          -999          -999
 10            100          -13.104256    -999          -13.104256
 20            100          -7.0683731    -999          -7.0683731
 30            100          -3.5561923    -999          -3.5561923
 40            100          -1.1431301    -999          -1.1431301
 50            100           .56058038    -999           .56058038
 60            100           1.6509414    -999           1.6509414
 70            100           2.0159455    -999           2.0159455
 80            100           .91530025    -999           .91530025
 90            100          -23.208497    -999          -23.208497
 0             110          -999          -999          -999
 10            110          -13.104256    -999          -13.104256
 20            110          -7.0683731    -999          -7.0683731
 30            110          -3.5561923    -999          -3.5561923
 40            110          -1.1431301    -999          -1.1431301
 50            110           .56058038    -999           .56058038
 60            110           1.6509414    -999           1.6509414
 70            110           2.0159455    -999           2.0159455
 80            110           .91530025    -999           .91530025
 90            110          -23.208497    -999          -23.208497
 0             120          -999          -999          -999
 10            120          -13.104256    -999          -13.104256
 20            120          -7.0683731    -999          -7.0683731
 30            120          -3.5561923    -999          -3.5561923
 40            120          -1.1431301    -999          -1.1431301
 50            120           .56058038    -999           .56058038
 60            120           1.6509414    -999           1.6509414
 70            120           2.0159455    -999           2.0159455
 80            120           .91530025    -999           .91530025
 90            120          -23.208497    -999          -23.208497
 0             130          -999          -999          -999
 10            130          -13.104256    -999          -13.104256
 20            130          -7.0683731    -999          -7.0683731
 30            130          -3.5561923    -999          -3.5561923
 40            130          -1.1431301    -999          -1.1431301
 50            130           .56058038    -999           .56058038
 60            130           1.6509414    -999           1.6509414
 70            130           2.0159455    -999           2.0159455
 80            130           .91530025    -999           .91530025
 90            130          -23.208497    -999          -23.208497
 0             140          -999          -999          -999
 10            140          -13.104256    -999          -13.104256
 20            140          -7.0683731    -999          -7.0683731
 30            140          -3.5561923    -999          -3.5561923
 40            140          -1.1431301    -999          -1.1431301
 50            140           .56058038    -999           .56058038
 60            140           1.6509414    -999           1.6509414
 70            140           2.0159455    -999           2.0159455
 80            140           .91530025    -999           .91530025
 90            140          -23.208497    -999          -23.208497
 0             150          -999          -999          -999
 10            150          -13.104256    -999          -13.104256
 20            150          -7.0683731    -999          -7.0683731
 30            150          -3.5561923    -999          -3.5561923
 40            150          -1.1431301    -999          -1.1431301
 50            150           .56058038    -999           .56058038
 60            150           1.6509414    -999           1.6509414
 70            150           2.0159455    -999           2.0159455
 80            150           .91530025    -999           .91530025
 90            150          -23.208497    -999          -23.208497
 0             160          -999          -999          -999
 10            160          -13.104256    -999          -13.104256
 20            160          -7.0683731    -999          -7.0683731
 30            160          -3.5561923    -999          -3.5561923
 40            160          -1.1431301    -999          -1.1431301
 50            160           .56058038    -999           .56058038
 60            160           1.6509414    -999           1.6509414
 70            160           2.0159455    -999           2.0159455
 80            160           .91530025    -999           .91530025
 90            160          -23.208497    -999          -23.208497
 0             170          -999          -999          -999
 10            170          -13.104256    -999          -13.104256
 20            170          -7.0683731    -999          -7.0683731
 30            170          -3.5561923    -999          -3.5561923
 40            170          -1.1431301    -999          -1.1431301
 50            170           .56058038    -999           .56058038
 60            170           1.6509414    -999           1.6509414
 70            170           2.0159455    -999           2.0159455
 80            170           .91530025    -999           .91530025
 90            170          -23.208497    -999          -23.208497
 0             180          -999          -999          -999
 10            180          -13.104256    -999          -13.104256
 20            180          -7.0683731    -999          -7.0683731
 30            180          -3.5561923    -999          -3.5561923
 40            180          -1.1431301    -999          -1.1431301
 50            180           .56058038    -999           .56058038
 60            180           1.6509414    -999           1.6509414
 70            180           2.0159455    -999           2.0159455
 80            180           .91530025    -999           .91530025
 90            180          -23.208497    -999          -23.208497
 0             190          -999          -999          -999
 10            190          -13.104256    -999          -13.104256
 20            190          -7.0683731    -999          -7.0683731
 30            190          -3.5561923    -999          -3.5561923
 40            190          -1.1431301    -999          -1.1431301
 50            190           .56058038    -999           .56058038
 60            190           1.6509414    -999           1.6509414
 70            190           2.0159455    -999           2.0159455
 80            190           .91530025    -999           .91530025
 90            190          -23.208497    -999          -23.208497
 0             200          -999          -999          -999
 10            200          -13.104256    -999          -13.104256
 20            200          -7.0683731    -999          -7.0683731
 30            200          -3.5561923    -999          -3.5561923
 40            200          -1.1431301    -999          -1.1431301
 50            200           .56058038    -999           .56058038
 60            200           1.6509414    -999           1.6509414
 70            200           2.0159455    -999           2.0159455
 80            200           .91530025    -999           .91530025
 90            200          -23.208497    -999          -23.208497
 0             210          -999          -999          -999
 10            210          -13.104256    -999          -13.104256
 20            210          -7.0683731    -999          -7.0683731
 30            210          -3.5561923    -999          -3.5561923
 40            210          -1.1431301    -999          -1.1431301
 50            210           .56058038    -999           .56058038
 60            210           1.6509414    -999           1.6509414
 70            210           2.0159455    -999           2.0159455
 80            210           .91530025    -999           .91530025
 90            210          -23.208497    -999          -23.208497
 0             220          -999          -999          -999
 10            220          -13.104256    -999          -13.104256
 20            220          -7.0683731    -999          -7.0683731
 30            220          -3.5561923    -999          -3.5561923
 40            220          -1.1431301    -999          -1.1431301
 50            220           .56058038    -999           .56058038
 60            220           1.6509414    -999           1.6509414
 70            220           2.0159455    -999           2.0159455
 80            220           .91530025    -999           .91530025
 90            220          -23.208497    -999          -23.208497
 0             230          -999          -999          -999
 10            230          -13.104256    -999          -13.104256
 20            230          -7.0683731    -999          -7.0683731
 30            230          -3.5561923    -999          -3.5561923
 40            230          -1.1431301    -999          -1.1431301
 50            230           .56058038    -999           .56058038
 60            230           1.6509414    -999           1.6509414
 70            230           2.0159455    -999           2.0159455
 80            230           .91530025    -999           .91530025
 90            230          -23.208497    -999          -23.208497
 0             240          -999          -999          -999
 10            240          -13.104256    -999          -13.104256
 20            240          -7.0683731    -999          -7.0683731
 30            240          -3.5561923    -999          -3.5561923
 40            240          -1.1431301    -999          -1.1431301
 50            240           .56058038    -999           .56058038
 60            240           1.6509414    -999           1.6509414
 70            240           2.0159455    -999           2.0159455
 80            240           .91530025    -999           .91530025
 90            240          -23.208497    -999          -23.208497
 0             250          -999          -999          -999
 10            250          -13.104256    -999          -13.104256
 20            250          -7.0683731    -999          -7.0683731
 30            250          -3.5561923    -999          -3.5561923
 40            250          -1.1431301    -999          -1.1431301
 50            250           .56058038    -999           .56058038
 60            250           1.6509414    -999           1.6509414
 70            250           2.0159455    -999           2.0159455
 80            250           .91530025    -999           .91530025
 90            250          -23.208497    -999          -23.208497
 0             260          -999          -999          -999
 10            260          -13.104256    -999          -13.104256
 20            260          -7.0683731    -999          -7.0683731
 30            260          -3.5561923    -999          -3.5561923
 40            260          -1.1431301    -999          -1.1431301
 50            260           .56058038    -999           .56058038
 60            260           1.6509414    -999           1.6509414
 70            260           2.0159455    -999           2.0159455
 80            260           .91530025    -999           .91530025
 90            260          -23.208497    -999          -23.208497
 0             270          -999          -999          -999
 10            270          -13.104256    -999          -13.104256
 20            270          -7.0683731    -999          -7.0683731
 30            270          -3.5561923    -999          -3.5561923
 40            270          -1.1431301    -999          -1.1431301
 50            270           .56058038    -999           .56058038
 60            270           1.6509414    -999           1.6509414
 70            270           2.0159455    -999           2.0159455
 80            270           .91530025    -999           .91530025
 90            270          -23.208497    -999          -23.208497
 0             280          -999          -999          -999
 10            280          -13.104256    -999          -13.104256
 20            280          -7.0683731    -999          -7.0683731
 30            280          -3.5561923    -999          -3.5561923
 40            280          -1.1431301    -999          -1.1431301
 50            280           .56058038    -999           .56058038
 60            280           1.6509414    -999           1.6509414
 70            280           2.0159455    -999           2.0159455
 80            280           .11584144    -999           .11584144
 90            280          -23.208497    -999          -23.208497
 0             290          -999          -999          -999
 10            290          -13.104256    -999          -13.104256
 20            290          -7.0683731    -999          -7.0683731
 30            290          -3.5561923    -999          -3.5561923
 40            290          -1.1431301    -999          -1.1431301
 50            290           .56058038    -999           .56058038
 60            290           1.4371419    -999           1.4371419
 70            290           .20508561    -999           .20508561
 80            290          -.86219003    -999          -.86219003
 90            290          -23.208497    -999          -23.208497
 0             300          -999          -999          -999
 10            300          -13.104256    -999          -13.104256
 20            300          -7.0683731    -999          -7.0683731
 30            300          -3.5561923    -999          -3.5561923
 40            300          -1.1431301    -999          -1.1431301
 50            300           .52439801    -999           .52439801
 60            300           .32910257    -999           .32910257
 70            300          -1.2160282    -999          -1.2160282
 80            300          -1.3416821    -999          -1.3416821
 90            300          -23.208497    -999          -23.208497
 0             310          -999          -999          -999
 10            310          -13.104256    -999          -13.104256
 20            310          -7.0683731    -999          -7.0683731
 30            310          -3.5561923    -999          -3.5561923
 40            310          -1.1195165    -999          -1.1195165
 50            310           .30071483    -999           .30071483
 60            310          -.84368902    -999          -.84368902
 70            310          -2.4744342    -999          -2.4744342
 80            310          -1.5966974    -999          -1.5966974
 90            310          -23.208497    -999          -23.208497
 0             320          -999          -999          -999
 10            320          -13.104256    -999          -13.104256
 20            320          -7.0683731    -999          -7.0683731
 30            320          -3.5561923    -999          -3.5561923
 40            320          -.97491954    -999          -.97491954
 50            320           .10530978    -999           .10530978
 60            320          -1.3257194    -999          -1.3257194
 70            320          -3.2185004    -999          -3.2185004
 80            320          -1.5966974    -999          -1.5966974
 90            320          -23.208497    -999          -23.208497
 0             330          -999          -999          -999
 10            330          -13.104256    -999          -13.104256
 20            330          -7.0683731    -999          -7.0683731
 30            330          -3.5561923    -999          -3.5561923
 40            330          -.85500312    -999          -.85500312
 50            330          -.00947408    -999          -.00947408
 60            330          -1.8532392    -999          -1.8532392
 70            330          -3.2185004    -999          -3.2185004
 80            330          -1.5966974    -999          -1.5966974
 90            330          -23.208497    -999          -23.208497
 0             340          -999          -999          -999
 10            340          -13.104256    -999          -13.104256
 20            340          -7.0683731    -999          -7.0683731
 30            340          -3.5262736    -999          -3.5262736
 40            340          -.79550651    -999          -.79550651
 50            340          -.13275617    -999          -.13275617
 60            340          -1.8532392    -999          -1.8532392
 70            340          -4.0528886    -999          -4.0528886
 80            340          -1.8601124    -999          -1.8601124
 90            340          -23.208497    -999          -23.208497
 0             350          -999          -999          -999
 10            350          -13.104256    -999          -13.104256
 20            350          -7.0683731    -999          -7.0683731
 30            350          -3.4739241    -999          -3.4739241
 40            350          -.79550651    -999          -.79550651
 50            350          -.13275617    -999          -.13275617
 60            350          -2.4242322    -999          -2.4242322
 70            350          -4.0528886    -999          -4.0528886
 80            350          -1.8601124    -999          -1.8601124
 90            350          -23.208497    -999          -23.208497
 0             360          -999          -999          -999
 10            360          -13.104256    -999          -13.104256
 20            360          -7.0683731    -999          -7.0683731
 30            360          -3.4739241    -999          -3.4739241
 40            360          -.73835628    -999          -.73835628
 50            360          -.13275617    -999          -.13275617
 60            360          -2.4242322    -999          -2.4242322
 70            360          -4.0528886    -999          -4.0528886
 80            360          -1.8601124    -999          -1.8601124
 90            360          -23.208497    -999          -23.208497
