                   ****************************************
                     MINI-NUMERICAL ELECTROMAGNETICS CODE
                                   MININEC
                   ****************************************

FREQUENCY (MHZ): 7.15
    WAVE LENGTH =  41.93007  METERS

ENVIRONMENT (+1 FOR FREE SPACE, -1 FOR GROUND PLANE): -1
 NUMBER OF MEDIA (0 FOR PERFECTLY CONDUCTING GROUND):  0

NO. OF WIRES: 1

WIRE NO. 1
            COORDINATES                                 END         NO. OF
   X             Y             Z          RADIUS     CONNECTION     SEGMENTS
 0             0             0                         -1
 0             0             10.0838       .001         0             20

                  **** ANTENNA GEOMETRY ****

WIRE NO.  1  COORDINATES                                CONNECTION PULSE
X             Y             Z             RADIUS        END1 END2  NO.
 0             0             0             .001         -1    1   1
 0             0             .50419        .001          1    1   2
 0             0             1.00838       .001          1    1   3
 0             0             1.51257       .001          1    1   4
 0             0             2.01676       .001          1    1   5
 0             0             2.52095       .001          1    1   6
 0             0             3.02514       .001          1    1   7
 0             0             3.52933       .001          1    1   8
 0             0             4.03352       .001          1    1   9
 0             0             4.53771       .001          1    1  10
 0             0             5.0419        .001          1    1  11
 0             0             5.54609       .001          1    1  12
 0             0             6.05028       .001          1    1  13
 0             0             6.55447       .001          1    1  14
 0             0             7.05866       .001          1    1  15
 0             0             7.56285       .001          1    1  16
 0             0             8.06704       .001          1    1  17
 0             0             8.57123       .001          1    1  18
 0             0             9.07542       .001          1    1  19
 0             0             9.57961       .001          1    0  20

NO. OF SOURCES :  1
PULSE NO., VOLTAGE MAGNITUDE, PHASE (DEGREES):  1 , 1 , 0
NUMBER OF LOADS 1
PULSE NO., ORDER OF S-PARAMETER FUNCTION:  1 , 1
NUMERATOR, DENOMINATOR COEFFICIENTS OF S^ 1 : 0 , 1
NUMERATOR, DENOMINATOR COEFFICIENTS OF S^ 2 : 0.225998 , 0

********************    SOURCE DATA     ********************
PULSE  1      VOLTAGE = ( 1 , 0 J)
              CURRENT = ( 2.884737E-02 ,  1.953881E-09 J)
              IMPEDANCE = ( 34.6652  , -.000002  J)
              POWER =  1.442369E-02  WATTS

********************    CURRENT DATA    ********************

WIRE NO.  1 :
PULSE         REAL          IMAGINARY     MAGNITUDE     PHASE
 NO.          (AMPS)        (AMPS)        (AMPS)        (DEGREES)
 1             2.884737E-02  1.953881E-09  2.884737E-02  3.880739E-06 
 2             2.870494E-02 -2.005324E-04  2.870564E-02 -.400261  
 3             2.840867E-02 -3.563124E-04  2.841090E-02 -.718588  
 4             2.795387E-02 -4.877016E-04  2.795812E-02 -.999519  
 5             2.734152E-02 -5.986654E-04  2.734807E-02 -1.254339 
 6             2.657415E-02 -6.906883E-04  2.658312E-02 -1.488839 
 7             2.565533E-02 -7.644436E-04  2.566671E-02 -1.706719 
 8             2.458949E-02 -8.202826E-04  2.460317E-02 -1.910625 
 9             2.338184E-02 -8.584254E-04  2.339760E-02 -2.102575 
 10            2.203826E-02 -8.790507E-04  2.205579E-02 -2.284173 
 11            2.056522E-02 -8.823394E-04  2.058414E-02 -2.456737 
 12            1.896971E-02 -8.684986E-04  1.898958E-02 -2.621368 
 13            1.725907E-02 -8.377709E-04  1.727940E-02 -2.779007 
 14            1.544090E-02 -7.904348E-04  1.546112E-02 -2.930469 
 15            1.352274E-02 -7.267958E-04  1.354226E-02 -3.076469 
 16            1.151176E-02 -6.471640E-04  1.152994E-02 -3.217647 
 17            9.414047E-03 -5.518096E-04  9.430205E-03 -3.354585 
 18            7.233298E-03 -4.408663E-04  7.246721E-03 -3.487837 
 19            4.967515E-03 -3.140939E-04  4.977435E-03 -3.617971 
 20            2.598024E-03 -1.700915E-04  2.603586E-03 -3.745785 
E              0             0             0             0

********************    NEAR FIELDS     ********************

X-COORDINATE (M): INITIAL,INCREMENT,NUMBER : -1 ,  1 ,  3
Y-COORDINATE (M): INITIAL,INCREMENT,NUMBER : -1 ,  1 ,  3
Z-COORDINATE (M): INITIAL,INCREMENT,NUMBER :  0 ,  1 ,  2

********************NEAR ELECTRIC FIELDS********************
         FIELD POINT: X = -1         Y = -1         Z =  0       
  VECTOR      REAL          IMAGINARY     MAGNITUDE     PHASE
 COMPONENT     V/M           V/M           V/M           DEG
   X           0             0             0             0
   Y           0             0             0             0
   Z          -.208043       3.201651E-02  .210492       171.2512
   MAXIMUM OR PEAK FIELD =  .210492  V/M

********************NEAR ELECTRIC FIELDS********************
         FIELD POINT: X =  0         Y = -1         Z =  0       
  VECTOR      REAL          IMAGINARY     MAGNITUDE     PHASE
 COMPONENT     V/M           V/M           V/M           DEG
   X           0             0             0             0
   Y           0             0             0             0
   Z          -.243511       4.281428E-02  .247246       170.0281
   MAXIMUM OR PEAK FIELD =  .247246  V/M

********************NEAR ELECTRIC FIELDS********************
         FIELD POINT: X =  1         Y = -1         Z =  0       
  VECTOR      REAL          IMAGINARY     MAGNITUDE     PHASE
 COMPONENT     V/M           V/M           V/M           DEG
   X           0             0             0             0
   Y           0             0             0             0
   Z          -.208043       3.201651E-02  .210492       171.2512
   MAXIMUM OR PEAK FIELD =  .210492  V/M

********************NEAR ELECTRIC FIELDS********************
         FIELD POINT: X = -1         Y =  0         Z =  0       
  VECTOR      REAL          IMAGINARY     MAGNITUDE     PHASE
 COMPONENT     V/M           V/M           V/M           DEG
   X           0             0             0             0
   Y           0             0             0             0
   Z          -.243511       4.281428E-02  .247246       170.0281
   MAXIMUM OR PEAK FIELD =  .247246  V/M

********************NEAR ELECTRIC FIELDS********************
         FIELD POINT: X =  0         Y =  0         Z =  0       
  VECTOR      REAL          IMAGINARY     MAGNITUDE     PHASE
 COMPONENT     V/M           V/M           V/M           DEG
   X           0             0             0             0
   Y           0             0             0             0
   Z          -11.72928      6.846127      13.58107      149.7288
   MAXIMUM OR PEAK FIELD =  13.58107 V/M

********************NEAR ELECTRIC FIELDS********************
         FIELD POINT: X =  1         Y =  0         Z =  0       
  VECTOR      REAL          IMAGINARY     MAGNITUDE     PHASE
 COMPONENT     V/M           V/M           V/M           DEG
   X           0             0             0             0
   Y           0             0             0             0
   Z          -.243511       4.281428E-02  .247246       170.0281
   MAXIMUM OR PEAK FIELD =  .247246  V/M

********************NEAR ELECTRIC FIELDS********************
         FIELD POINT: X = -1         Y =  1         Z =  0       
  VECTOR      REAL          IMAGINARY     MAGNITUDE     PHASE
 COMPONENT     V/M           V/M           V/M           DEG
   X           0             0             0             0
   Y           0             0             0             0
   Z          -.208043       3.201651E-02  .210492       171.2512
   MAXIMUM OR PEAK FIELD =  .210492  V/M

********************NEAR ELECTRIC FIELDS********************
         FIELD POINT: X =  0         Y =  1         Z =  0       
  VECTOR      REAL          IMAGINARY     MAGNITUDE     PHASE
 COMPONENT     V/M           V/M           V/M           DEG
   X           0             0             0             0
   Y           0             0             0             0
   Z          -.243511       4.281428E-02  .247246       170.0281
   MAXIMUM OR PEAK FIELD =  .247246  V/M

********************NEAR ELECTRIC FIELDS********************
         FIELD POINT: X =  1         Y =  1         Z =  0       
  VECTOR      REAL          IMAGINARY     MAGNITUDE     PHASE
 COMPONENT     V/M           V/M           V/M           DEG
   X           0             0             0             0
   Y           0             0             0             0
   Z          -.208043       3.201651E-02  .210492       171.2512
   MAXIMUM OR PEAK FIELD =  .210492  V/M

********************NEAR ELECTRIC FIELDS********************
         FIELD POINT: X = -1         Y = -1         Z =  1       
  VECTOR      REAL          IMAGINARY     MAGNITUDE     PHASE
 COMPONENT     V/M           V/M           V/M           DEG
   X          -2.722577E-02  .137484       .140154       101.2013
   Y          -2.722577E-02  .137484       .140154       101.2013
   Z          -.188384       2.423008E-02  .189936       172.6708
   MAXIMUM OR PEAK FIELD =  .223053  V/M

********************NEAR ELECTRIC FIELDS********************
         FIELD POINT: X =  0         Y = -1         Z =  1       
  VECTOR      REAL          IMAGINARY     MAGNITUDE     PHASE
 COMPONENT     V/M           V/M           V/M           DEG
   X           0             0             0             0
   Y          -7.359650E-02  .282658       .292083       104.5942
   Z          -.198187       2.756082E-02  .200094       172.0829
   MAXIMUM OR PEAK FIELD =  .307416  V/M

********************NEAR ELECTRIC FIELDS********************
         FIELD POINT: X =  1         Y = -1         Z =  1       
  VECTOR      REAL          IMAGINARY     MAGNITUDE     PHASE
 COMPONENT     V/M           V/M           V/M           DEG
   X           2.722577E-02 -.137484       .140154      -78.7987
   Y          -2.722577E-02  .137484       .140154       101.2013
   Z          -.188384       2.423008E-02  .189936       172.6708
   MAXIMUM OR PEAK FIELD =  .223053  V/M

********************NEAR ELECTRIC FIELDS********************
         FIELD POINT: X = -1         Y =  0         Z =  1       
  VECTOR      REAL          IMAGINARY     MAGNITUDE     PHASE
 COMPONENT     V/M           V/M           V/M           DEG
   X          -7.359650E-02  .282658       .292083       104.5942
   Y           0             0             0             0
   Z          -.198187       2.756082E-02  .200094       172.0829
   MAXIMUM OR PEAK FIELD =  .307416  V/M

********************NEAR ELECTRIC FIELDS********************
         FIELD POINT: X =  0         Y =  0         Z =  1       
  VECTOR      REAL          IMAGINARY     MAGNITUDE     PHASE
 COMPONENT     V/M           V/M           V/M           DEG
   X           0             0             0             0
   Y           0             0             0             0
   Z          -9.70639       36.96262      38.21582      104.7137
   MAXIMUM OR PEAK FIELD =  38.21582 V/M

********************NEAR ELECTRIC FIELDS********************
         FIELD POINT: X =  1         Y =  0         Z =  1       
  VECTOR      REAL          IMAGINARY     MAGNITUDE     PHASE
 COMPONENT     V/M           V/M           V/M           DEG
   X           7.359650E-02 -.282658       .292083      -75.40579
   Y           0             0             0             0
   Z          -.198187       2.756082E-02  .200094       172.0829
   MAXIMUM OR PEAK FIELD =  .307416  V/M

********************NEAR ELECTRIC FIELDS********************
         FIELD POINT: X = -1         Y =  1         Z =  1       
  VECTOR      REAL          IMAGINARY     MAGNITUDE     PHASE
 COMPONENT     V/M           V/M           V/M           DEG
   X          -2.722577E-02  .137484       .140154       101.2013
   Y           2.722577E-02 -.137484       .140154      -78.7987
   Z          -.188384       2.423008E-02  .189936       172.6708
   MAXIMUM OR PEAK FIELD =  .223053  V/M

********************NEAR ELECTRIC FIELDS********************
         FIELD POINT: X =  0         Y =  1         Z =  1       
  VECTOR      REAL          IMAGINARY     MAGNITUDE     PHASE
 COMPONENT     V/M           V/M           V/M           DEG
   X           0             0             0             0
   Y           7.359650E-02 -.282658       .292083      -75.40579
   Z          -.198187       2.756082E-02  .200094       172.0829
   MAXIMUM OR PEAK FIELD =  .307416  V/M

********************NEAR ELECTRIC FIELDS********************
         FIELD POINT: X =  1         Y =  1         Z =  1       
  VECTOR      REAL          IMAGINARY     MAGNITUDE     PHASE
 COMPONENT     V/M           V/M           V/M           DEG
   X           2.722577E-02 -.137484       .140154      -78.7987
   Y           2.722577E-02 -.137484       .140154      -78.7987
   Z          -.188384       2.423008E-02  .189936       172.6708
   MAXIMUM OR PEAK FIELD =  .223053  V/M

********************    NEAR FIELDS     ********************

X-COORDINATE (M): INITIAL,INCREMENT,NUMBER : -1 ,  1 ,  3
Y-COORDINATE (M): INITIAL,INCREMENT,NUMBER : -1 ,  1 ,  3
Z-COORDINATE (M): INITIAL,INCREMENT,NUMBER :  0 ,  1 ,  2

********************NEAR MAGNETIC FIELDS********************
         FIELD POINT: X = -1         Y = -1         Z =  0       
  VECTOR      REAL          IMAGINARY     MAGNITUDE     PHASE
 COMPONENT     AMPS/M        AMPS/M        AMPS/M        DEG
   X           2.282644E-03 -6.050430E-05  2.283445E-03 -1.51834
   Y          -2.282644E-03  6.050430E-05  2.283445E-03  178.4817
   Z           0             0             0             0
   MAXIMUM OR PEAK FIELD =  3.229279E-03  AMPS/M

********************NEAR MAGNETIC FIELDS********************
         FIELD POINT: X =  0         Y = -1         Z =  0       
  VECTOR      REAL          IMAGINARY     MAGNITUDE     PHASE
 COMPONENT     AMPS/M        AMPS/M        AMPS/M        DEG
   X           4.573614E-03 -7.661466E-05  4.574255E-03 -.959698
   Y           0             0             0             0
   Z           0             0             0             0
   MAXIMUM OR PEAK FIELD =  4.574255E-03  AMPS/M

********************NEAR MAGNETIC FIELDS********************
         FIELD POINT: X =  1         Y = -1         Z =  0       
  VECTOR      REAL          IMAGINARY     MAGNITUDE     PHASE
 COMPONENT     AMPS/M        AMPS/M        AMPS/M        DEG
   X           2.282644E-03 -6.050430E-05  2.283445E-03 -1.51834
   Y           2.282644E-03 -6.050430E-05  2.283445E-03 -1.51834
   Z           0             0             0             0
   MAXIMUM OR PEAK FIELD =  3.229279E-03  AMPS/M

********************NEAR MAGNETIC FIELDS********************
         FIELD POINT: X = -1         Y =  0         Z =  0       
  VECTOR      REAL          IMAGINARY     MAGNITUDE     PHASE
 COMPONENT     AMPS/M        AMPS/M        AMPS/M        DEG
   X           0             0             0             0
   Y          -4.573614E-03  7.661466E-05  4.574255E-03  179.0403
   Z           0             0             0             0
   MAXIMUM OR PEAK FIELD =  4.574255E-03  AMPS/M

********************NEAR MAGNETIC FIELDS********************
         FIELD POINT: X =  0         Y =  0         Z =  0       
  VECTOR      REAL          IMAGINARY     MAGNITUDE     PHASE
 COMPONENT     AMPS/M        AMPS/M        AMPS/M        DEG
   X           0             0             0             0
   Y           0             0             0             0
   Z           0             0             0             0
   MAXIMUM OR PEAK FIELD =  0  AMPS/M

********************NEAR MAGNETIC FIELDS********************
         FIELD POINT: X =  1         Y =  0         Z =  0       
  VECTOR      REAL          IMAGINARY     MAGNITUDE     PHASE
 COMPONENT     AMPS/M        AMPS/M        AMPS/M        DEG
   X           0             0             0             0
   Y           4.573614E-03 -7.661466E-05  4.574255E-03 -.959698
   Z           0             0             0             0
   MAXIMUM OR PEAK FIELD =  4.574255E-03  AMPS/M

********************NEAR MAGNETIC FIELDS********************
         FIELD POINT: X = -1         Y =  1         Z =  0       
  VECTOR      REAL          IMAGINARY     MAGNITUDE     PHASE
 COMPONENT     AMPS/M        AMPS/M        AMPS/M        DEG
   X          -2.282644E-03  6.050430E-05  2.283445E-03  178.4817
   Y          -2.282644E-03  6.050430E-05  2.283445E-03  178.4817
   Z           0             0             0             0
   MAXIMUM OR PEAK FIELD =  3.229279E-03  AMPS/M

********************NEAR MAGNETIC FIELDS********************
         FIELD POINT: X =  0         Y =  1         Z =  0       
  VECTOR      REAL          IMAGINARY     MAGNITUDE     PHASE
 COMPONENT     AMPS/M        AMPS/M        AMPS/M        DEG
   X          -4.573614E-03  7.661466E-05  4.574255E-03  179.0403
   Y           0             0             0             0
   Z           0             0             0             0
   MAXIMUM OR PEAK FIELD =  4.574255E-03  AMPS/M

********************NEAR MAGNETIC FIELDS********************
         FIELD POINT: X =  1         Y =  1         Z =  0       
  VECTOR      REAL          IMAGINARY     MAGNITUDE     PHASE
 COMPONENT     AMPS/M        AMPS/M        AMPS/M        DEG
   X          -2.282644E-03  6.050430E-05  2.283445E-03  178.4817
   Y           2.282644E-03 -6.050430E-05  2.283445E-03 -1.51834
   Z           0             0             0             0
   MAXIMUM OR PEAK FIELD =  3.229279E-03  AMPS/M

********************NEAR MAGNETIC FIELDS********************
         FIELD POINT: X = -1         Y = -1         Z =  1       
  VECTOR      REAL          IMAGINARY     MAGNITUDE     PHASE
 COMPONENT     AMPS/M        AMPS/M        AMPS/M        DEG
   X           2.254984E-03 -6.693791E-05  2.255978E-03 -1.700293
   Y          -2.254984E-03  6.693791E-05  2.255978E-03  178.2997
   Z           0             0             0             0
   MAXIMUM OR PEAK FIELD =  3.190434E-03  AMPS/M

********************NEAR MAGNETIC FIELDS********************
         FIELD POINT: X =  0         Y = -1         Z =  1       
  VECTOR      REAL          IMAGINARY     MAGNITUDE     PHASE
 COMPONENT     AMPS/M        AMPS/M        AMPS/M        DEG
   X           4.516094E-03 -9.559475E-05  4.517106E-03 -1.212632
   Y           0             0             0             0
   Z           0             0             0             0
   MAXIMUM OR PEAK FIELD =  4.517106E-03  AMPS/M

********************NEAR MAGNETIC FIELDS********************
         FIELD POINT: X =  1         Y = -1         Z =  1       
  VECTOR      REAL          IMAGINARY     MAGNITUDE     PHASE
 COMPONENT     AMPS/M        AMPS/M        AMPS/M        DEG
   X           2.254984E-03 -6.693791E-05  2.255978E-03 -1.700293
   Y           2.254984E-03 -6.693791E-05  2.255978E-03 -1.700293
   Z           0             0             0             0
   MAXIMUM OR PEAK FIELD =  3.190434E-03  AMPS/M

********************NEAR MAGNETIC FIELDS********************
         FIELD POINT: X = -1         Y =  0         Z =  1       
  VECTOR      REAL          IMAGINARY     MAGNITUDE     PHASE
 COMPONENT     AMPS/M        AMPS/M        AMPS/M        DEG
   X           0             0             0             0
   Y          -4.516094E-03  9.559475E-05  4.517106E-03  178.7874
   Z           0             0             0             0
   MAXIMUM OR PEAK FIELD =  4.517106E-03  AMPS/M

********************NEAR MAGNETIC FIELDS********************
         FIELD POINT: X =  0         Y =  0         Z =  1       
  VECTOR      REAL          IMAGINARY     MAGNITUDE     PHASE
 COMPONENT     AMPS/M        AMPS/M        AMPS/M        DEG
   X           0             0             0             0
   Y           0             0             0             0
   Z           0             0             0             0
   MAXIMUM OR PEAK FIELD =  0  AMPS/M

********************NEAR MAGNETIC FIELDS********************
         FIELD POINT: X =  1         Y =  0         Z =  1       
  VECTOR      REAL          IMAGINARY     MAGNITUDE     PHASE
 COMPONENT     AMPS/M        AMPS/M        AMPS/M        DEG
   X           0             0             0             0
   Y           4.516094E-03 -9.559475E-05  4.517106E-03 -1.212632
   Z           0             0             0             0
   MAXIMUM OR PEAK FIELD =  4.517106E-03  AMPS/M

********************NEAR MAGNETIC FIELDS********************
         FIELD POINT: X = -1         Y =  1         Z =  1       
  VECTOR      REAL          IMAGINARY     MAGNITUDE     PHASE
 COMPONENT     AMPS/M        AMPS/M        AMPS/M        DEG
   X          -2.254984E-03  6.693791E-05  2.255978E-03  178.2997
   Y          -2.254984E-03  6.693791E-05  2.255978E-03  178.2997
   Z           0             0             0             0
   MAXIMUM OR PEAK FIELD =  3.190434E-03  AMPS/M

********************NEAR MAGNETIC FIELDS********************
         FIELD POINT: X =  0         Y =  1         Z =  1       
  VECTOR      REAL          IMAGINARY     MAGNITUDE     PHASE
 COMPONENT     AMPS/M        AMPS/M        AMPS/M        DEG
   X          -4.516094E-03  9.559475E-05  4.517106E-03  178.7874
   Y           0             0             0             0
   Z           0             0             0             0
   MAXIMUM OR PEAK FIELD =  4.517106E-03  AMPS/M

********************NEAR MAGNETIC FIELDS********************
         FIELD POINT: X =  1         Y =  1         Z =  1       
  VECTOR      REAL          IMAGINARY     MAGNITUDE     PHASE
 COMPONENT     AMPS/M        AMPS/M        AMPS/M        DEG
   X          -2.254984E-03  6.693791E-05  2.255978E-03  178.2997
   Y           2.254984E-03 -6.693791E-05  2.255978E-03 -1.700293
   Z           0             0             0             0
   MAXIMUM OR PEAK FIELD =  3.190434E-03  AMPS/M

