                   ****************************************
                     MINI-NUMERICAL ELECTROMAGNETICS CODE
                                   MININEC
                   ****************************************

FREQUENCY (MHZ): 7.15
    WAVE LENGTH =  41.93007  METERS

ENVIRONMENT (+1 FOR FREE SPACE, -1 FOR GROUND PLANE): -1
 NUMBER OF MEDIA (0 FOR PERFECTLY CONDUCTING GROUND):  2
 TYPE OF BOUNDARY (1-LINEAR, 2-CIRCULAR):  1
 RELATIVE DIELECTRIC CONSTANT, CONDUCTIVITY:  20 , .0303
 X OR R COORDINATE OF NEXT MEDIA INTERFACE:  5
 RELATIVE DIELECTRIC CONSTANT, CONDUCTIVITY:  20 , .0303
 HEIGHT OF MEDIA: -20

NO. OF GEO-OBJECTS: 1

WIRE NO. 1
            COORDINATES                                 END         NO. OF
   X             Y             Z          RADIUS     CONNECTION     SEGMENTS
 0             0             0                         -1
 0             0             10.0838       .0127        0             20

                  **** ANTENNA GEOMETRY ****

WIRE NO.  1 COORDINATES                                 CONNECTION PULSE
X             Y             Z             RADIUS        END1 END2  NO.
 0             0             0             .0127        -1    1   1
 0             0             .50419        .0127         1    1   2
 0             0             1.00838       .0127         1    1   3
 0             0             1.51257       .0127         1    1   4
 0             0             2.01676       .0127         1    1   5
 0             0             2.52095       .0127         1    1   6
 0             0             3.02514       .0127         1    1   7
 0             0             3.52933       .0127         1    1   8
 0             0             4.03352       .0127         1    1   9
 0             0             4.53771       .0127         1    1  10
 0             0             5.0419        .0127         1    1  11
 0             0             5.54609       .0127         1    1  12
 0             0             6.05028       .0127         1    1  13
 0             0             6.55447       .0127         1    1  14
 0             0             7.05866       .0127         1    1  15
 0             0             7.56285       .0127         1    1  16
 0             0             8.06704       .0127         1    1  17
 0             0             8.57123       .0127         1    1  18
 0             0             9.07542       .0127         1    1  19
 0             0             9.57961       .0127         1    0  20

NO. OF SOURCES :  1
PULSE NO., VOLTAGE MAGNITUDE, PHASE (DEGREES):  1 , 1 , 0
NUMBER OF LOADS 0

********************    SOURCE DATA     ********************
PULSE  1      VOLTAGE = ( 1 , 0 J)
              CURRENT = ( 2.790223E-02 ,  5.983541E-04 J)
              IMPEDANCE = ( 35.82295 , -.768211  J)
              POWER =  1.395112E-02  WATTS

********************    CURRENT DATA    ********************

WIRE NO.  1 :
PULSE         REAL          IMAGINARY     MAGNITUDE     PHASE
 NO.          (AMPS)        (AMPS)        (AMPS)        (DEGREES)
 1             2.790223E-02  5.983541E-04  2.790865E-02  1.228501 
 2             2.782316E-02  2.452580E-04  2.782424E-02  .505043  
 3             2.758631E-02 -2.486729E-06  2.758631E-02 -5.164848E-03 
 4             2.719286E-02 -2.096393E-04  2.719366E-02 -.441705  
 5             2.664471E-02 -3.862036E-04  2.664751E-02 -.83042   
 6             2.594454E-02 -5.360628E-04  2.595007E-02 -1.18367  
 7             2.509570E-02 -6.610295E-04  2.510441E-02 -1.508842 
 8             2.410227E-02 -7.620554E-04  2.411432E-02 -1.81095  
 9             2.296892E-02 -8.396929E-04  2.298426E-02 -2.093675 
 10            2.170089E-02 -8.943044E-04  2.171931E-02 -2.359852 
 11            2.030392E-02 -9.261688E-04  2.032504E-02 -2.611752 
 12            1.878412E-02 -9.355357E-04  1.880740E-02 -2.851238 
 13            1.714782E-02 -9.226526E-04  1.717262E-02 -3.079877 
 14            1.540139E-02 -8.877710E-04  1.542695E-02 -3.299009 
 15            1.355088E-02 -8.311347E-04  1.357634E-02 -3.509804 
 16            1.160152E-02 -7.529428E-04  1.162593E-02 -3.713309 
 17            9.556737E-03 -6.532702E-04  9.579039E-03 -3.910486 
 18            7.416101E-03 -5.318901E-04  7.435151E-03 -4.102286 
 19            5.170176E-03 -3.878208E-04  5.184701E-03 -4.289789 
 20            2.783613E-03 -2.178558E-04  2.792125E-03 -4.475057 
E              0             0             0             0

********************     FAR FIELD      ********************

ZENITH ANGLE : INITIAL,INCREMENT,NUMBER: 0 , 10 , 10
AZIMUTH ANGLE: INITIAL,INCREMENT,NUMBER: 0 , 10 , 37

********************    PATTERN DATA    ********************
ZENITH        AZIMUTH       VERTICAL      HORIZONTAL    TOTAL
 ANGLE         ANGLE        PATTERN (DB)  PATTERN (DB)  PATTERN (DB)
 0             0            -999          -999          -999     
 10            0            -13.1042      -999          -13.1042 
 20            0            -7.06832      -999          -7.06832 
 30            0            -3.473871     -999          -3.473871
 40            0            -.738303      -999          -.738303 
 50            0            -.132703      -999          -.132703 
 60            0            -2.424179     -999          -2.424179
 70            0            -4.052835     -999          -4.052835
 80            0            -1.860059     -999          -1.860059
 90            0            -23.20844     -999          -23.20844
 0             10           -999          -999          -999     
 10            10           -13.1042      -999          -13.1042 
 20            10           -7.06832      -999          -7.06832 
 30            10           -3.473871     -999          -3.473871
 40            10           -.795453      -999          -.795453 
 50            10           -.132703      -999          -.132703 
 60            10           -2.424179     -999          -2.424179
 70            10           -4.052835     -999          -4.052835
 80            10           -1.860059     -999          -1.860059
 90            10           -23.20844     -999          -23.20844
 0             20           -999          -999          -999     
 10            20           -13.1042      -999          -13.1042 
 20            20           -7.06832      -999          -7.06832 
 30            20           -3.52622      -999          -3.52622 
 40            20           -.795453      -999          -.795453 
 50            20           -.132703      -999          -.132703 
 60            20           -1.853186     -999          -1.853186
 70            20           -4.052835     -999          -4.052835
 80            20           -1.860059     -999          -1.860059
 90            20           -23.20844     -999          -23.20844
 0             30           -999          -999          -999     
 10            30           -13.1042      -999          -13.1042 
 20            30           -7.06832      -999          -7.06832 
 30            30           -3.556139     -999          -3.556139
 40            30           -.85495       -999          -.85495  
 50            30           -.00942       -999          -.00942  
 60            30           -1.853186     -999          -1.853186
 70            30           -3.218447     -999          -3.218447
 80            30           -1.596644     -999          -1.596644
 90            30           -23.20844     -999          -23.20844
 0             40           -999          -999          -999     
 10            40           -13.1042      -999          -13.1042 
 20            40           -7.06832      -999          -7.06832 
 30            40           -3.556139     -999          -3.556139
 40            40           -.974866      -999          -.974866 
 50            40            .105363      -999           .105363 
 60            40           -1.325666     -999          -1.325666
 70            40           -3.218447     -999          -3.218447
 80            40           -1.596644     -999          -1.596644
 90            40           -23.20844     -999          -23.20844
 0             50           -999          -999          -999     
 10            50           -13.1042      -999          -13.1042 
 20            50           -7.06832      -999          -7.06832 
 30            50           -3.556139     -999          -3.556139
 40            50           -1.119463     -999          -1.119463
 50            50            .300768      -999           .300768 
 60            50           -.843636      -999          -.843636 
 70            50           -2.474381     -999          -2.474381
 80            50           -1.596644     -999          -1.596644
 90            50           -23.20844     -999          -23.20844
 0             60           -999          -999          -999     
 10            60           -13.1042      -999          -13.1042 
 20            60           -7.06832      -999          -7.06832 
 30            60           -3.556139     -999          -3.556139
 40            60           -1.143077     -999          -1.143077
 50            60            .524451      -999           .524451 
 60            60            .329156      -999           .329156 
 70            60           -1.215975     -999          -1.215975
 80            60           -1.341629     -999          -1.341629
 90            60           -23.20844     -999          -23.20844
 0             70           -999          -999          -999     
 10            70           -13.1042      -999          -13.1042 
 20            70           -7.06832      -999          -7.06832 
 30            70           -3.556139     -999          -3.556139
 40            70           -1.143077     -999          -1.143077
 50            70            .560634      -999           .560634 
 60            70            1.437195     -999           1.437195
 70            70            .205139      -999           .205139 
 80            70           -.862137      -999          -.862137 
 90            70           -23.20844     -999          -23.20844
 0             80           -999          -999          -999     
 10            80           -13.1042      -999          -13.1042 
 20            80           -7.06832      -999          -7.06832 
 30            80           -3.556139     -999          -3.556139
 40            80           -1.143077     -999          -1.143077
 50            80            .560634      -999           .560634 
 60            80            1.650995     -999           1.650995
 70            80            2.015999     -999           2.015999
 80            80            .115895      -999           .115895 
 90            80           -23.20844     -999          -23.20844
 0             90           -999          -999          -999     
 10            90           -13.1042      -999          -13.1042 
 20            90           -7.06832      -999          -7.06832 
 30            90           -3.556139     -999          -3.556139
 40            90           -1.143077     -999          -1.143077
 50            90            .560634      -999           .560634 
 60            90            1.650995     -999           1.650995
 70            90            2.015999     -999           2.015999
 80            90            .915354      -999           .915354 
 90            90           -23.20844     -999          -23.20844
 0             100          -999          -999          -999     
 10            100          -13.1042      -999          -13.1042 
 20            100          -7.06832      -999          -7.06832 
 30            100          -3.556139     -999          -3.556139
 40            100          -1.143077     -999          -1.143077
 50            100           .560634      -999           .560634 
 60            100           1.650995     -999           1.650995
 70            100           2.015999     -999           2.015999
 80            100           .915354      -999           .915354 
 90            100          -23.20844     -999          -23.20844
 0             110          -999          -999          -999     
 10            110          -13.1042      -999          -13.1042 
 20            110          -7.06832      -999          -7.06832 
 30            110          -3.556139     -999          -3.556139
 40            110          -1.143077     -999          -1.143077
 50            110           .560634      -999           .560634 
 60            110           1.650995     -999           1.650995
 70            110           2.015999     -999           2.015999
 80            110           .915354      -999           .915354 
 90            110          -23.20844     -999          -23.20844
 0             120          -999          -999          -999     
 10            120          -13.1042      -999          -13.1042 
 20            120          -7.06832      -999          -7.06832 
 30            120          -3.556139     -999          -3.556139
 40            120          -1.143077     -999          -1.143077
 50            120           .560634      -999           .560634 
 60            120           1.650995     -999           1.650995
 70            120           2.015999     -999           2.015999
 80            120           .915354      -999           .915354 
 90            120          -23.20844     -999          -23.20844
 0             130          -999          -999          -999     
 10            130          -13.1042      -999          -13.1042 
 20            130          -7.06832      -999          -7.06832 
 30            130          -3.556139     -999          -3.556139
 40            130          -1.143077     -999          -1.143077
 50            130           .560634      -999           .560634 
 60            130           1.650995     -999           1.650995
 70            130           2.015999     -999           2.015999
 80            130           .915354      -999           .915354 
 90            130          -23.20844     -999          -23.20844
 0             140          -999          -999          -999     
 10            140          -13.1042      -999          -13.1042 
 20            140          -7.06832      -999          -7.06832 
 30            140          -3.556139     -999          -3.556139
 40            140          -1.143077     -999          -1.143077
 50            140           .560634      -999           .560634 
 60            140           1.650995     -999           1.650995
 70            140           2.015999     -999           2.015999
 80            140           .915354      -999           .915354 
 90            140          -23.20844     -999          -23.20844
 0             150          -999          -999          -999     
 10            150          -13.1042      -999          -13.1042 
 20            150          -7.06832      -999          -7.06832 
 30            150          -3.556139     -999          -3.556139
 40            150          -1.143077     -999          -1.143077
 50            150           .560634      -999           .560634 
 60            150           1.650995     -999           1.650995
 70            150           2.015999     -999           2.015999
 80            150           .915354      -999           .915354 
 90            150          -23.20844     -999          -23.20844
 0             160          -999          -999          -999     
 10            160          -13.1042      -999          -13.1042 
 20            160          -7.06832      -999          -7.06832 
 30            160          -3.556139     -999          -3.556139
 40            160          -1.143077     -999          -1.143077
 50            160           .560634      -999           .560634 
 60            160           1.650995     -999           1.650995
 70            160           2.015999     -999           2.015999
 80            160           .915354      -999           .915354 
 90            160          -23.20844     -999          -23.20844
 0             170          -999          -999          -999     
 10            170          -13.1042      -999          -13.1042 
 20            170          -7.06832      -999          -7.06832 
 30            170          -3.556139     -999          -3.556139
 40            170          -1.143077     -999          -1.143077
 50            170           .560634      -999           .560634 
 60            170           1.650995     -999           1.650995
 70            170           2.015999     -999           2.015999
 80            170           .915354      -999           .915354 
 90            170          -23.20844     -999          -23.20844
 0             180          -999          -999          -999     
 10            180          -13.1042      -999          -13.1042 
 20            180          -7.06832      -999          -7.06832 
 30            180          -3.556139     -999          -3.556139
 40            180          -1.143077     -999          -1.143077
 50            180           .560634      -999           .560634 
 60            180           1.650995     -999           1.650995
 70            180           2.015999     -999           2.015999
 80            180           .915354      -999           .915354 
 90            180          -23.20844     -999          -23.20844
 0             190          -999          -999          -999     
 10            190          -13.1042      -999          -13.1042 
 20            190          -7.06832      -999          -7.06832 
 30            190          -3.556139     -999          -3.556139
 40            190          -1.143077     -999          -1.143077
 50            190           .560634      -999           .560634 
 60            190           1.650995     -999           1.650995
 70            190           2.015999     -999           2.015999
 80            190           .915354      -999           .915354 
 90            190          -23.20844     -999          -23.20844
 0             200          -999          -999          -999     
 10            200          -13.1042      -999          -13.1042 
 20            200          -7.06832      -999          -7.06832 
 30            200          -3.556139     -999          -3.556139
 40            200          -1.143077     -999          -1.143077
 50            200           .560634      -999           .560634 
 60            200           1.650995     -999           1.650995
 70            200           2.015999     -999           2.015999
 80            200           .915354      -999           .915354 
 90            200          -23.20844     -999          -23.20844
 0             210          -999          -999          -999     
 10            210          -13.1042      -999          -13.1042 
 20            210          -7.06832      -999          -7.06832 
 30            210          -3.556139     -999          -3.556139
 40            210          -1.143077     -999          -1.143077
 50            210           .560634      -999           .560634 
 60            210           1.650995     -999           1.650995
 70            210           2.015999     -999           2.015999
 80            210           .915354      -999           .915354 
 90            210          -23.20844     -999          -23.20844
 0             220          -999          -999          -999     
 10            220          -13.1042      -999          -13.1042 
 20            220          -7.06832      -999          -7.06832 
 30            220          -3.556139     -999          -3.556139
 40            220          -1.143077     -999          -1.143077
 50            220           .560634      -999           .560634 
 60            220           1.650995     -999           1.650995
 70            220           2.015999     -999           2.015999
 80            220           .915354      -999           .915354 
 90            220          -23.20844     -999          -23.20844
 0             230          -999          -999          -999     
 10            230          -13.1042      -999          -13.1042 
 20            230          -7.06832      -999          -7.06832 
 30            230          -3.556139     -999          -3.556139
 40            230          -1.143077     -999          -1.143077
 50            230           .560634      -999           .560634 
 60            230           1.650995     -999           1.650995
 70            230           2.015999     -999           2.015999
 80            230           .915354      -999           .915354 
 90            230          -23.20844     -999          -23.20844
 0             240          -999          -999          -999     
 10            240          -13.1042      -999          -13.1042 
 20            240          -7.06832      -999          -7.06832 
 30            240          -3.556139     -999          -3.556139
 40            240          -1.143077     -999          -1.143077
 50            240           .560634      -999           .560634 
 60            240           1.650995     -999           1.650995
 70            240           2.015999     -999           2.015999
 80            240           .915354      -999           .915354 
 90            240          -23.20844     -999          -23.20844
 0             250          -999          -999          -999     
 10            250          -13.1042      -999          -13.1042 
 20            250          -7.06832      -999          -7.06832 
 30            250          -3.556139     -999          -3.556139
 40            250          -1.143077     -999          -1.143077
 50            250           .560634      -999           .560634 
 60            250           1.650995     -999           1.650995
 70            250           2.015999     -999           2.015999
 80            250           .915354      -999           .915354 
 90            250          -23.20844     -999          -23.20844
 0             260          -999          -999          -999     
 10            260          -13.1042      -999          -13.1042 
 20            260          -7.06832      -999          -7.06832 
 30            260          -3.556139     -999          -3.556139
 40            260          -1.143077     -999          -1.143077
 50            260           .560634      -999           .560634 
 60            260           1.650995     -999           1.650995
 70            260           2.015999     -999           2.015999
 80            260           .915354      -999           .915354 
 90            260          -23.20844     -999          -23.20844
 0             270          -999          -999          -999     
 10            270          -13.1042      -999          -13.1042 
 20            270          -7.06832      -999          -7.06832 
 30            270          -3.556139     -999          -3.556139
 40            270          -1.143077     -999          -1.143077
 50            270           .560634      -999           .560634 
 60            270           1.650995     -999           1.650995
 70            270           2.015999     -999           2.015999
 80            270           .915354      -999           .915354 
 90            270          -23.20844     -999          -23.20844
 0             280          -999          -999          -999     
 10            280          -13.1042      -999          -13.1042 
 20            280          -7.06832      -999          -7.06832 
 30            280          -3.556139     -999          -3.556139
 40            280          -1.143077     -999          -1.143077
 50            280           .560634      -999           .560634 
 60            280           1.650995     -999           1.650995
 70            280           2.015999     -999           2.015999
 80            280           .115895      -999           .115895 
 90            280          -23.20844     -999          -23.20844
 0             290          -999          -999          -999     
 10            290          -13.1042      -999          -13.1042 
 20            290          -7.06832      -999          -7.06832 
 30            290          -3.556139     -999          -3.556139
 40            290          -1.143077     -999          -1.143077
 50            290           .560634      -999           .560634 
 60            290           1.437195     -999           1.437195
 70            290           .205139      -999           .205139 
 80            290          -.862137      -999          -.862137 
 90            290          -23.20844     -999          -23.20844
 0             300          -999          -999          -999     
 10            300          -13.1042      -999          -13.1042 
 20            300          -7.06832      -999          -7.06832 
 30            300          -3.556139     -999          -3.556139
 40            300          -1.143077     -999          -1.143077
 50            300           .524451      -999           .524451 
 60            300           .329156      -999           .329156 
 70            300          -1.215975     -999          -1.215975
 80            300          -1.341629     -999          -1.341629
 90            300          -23.20844     -999          -23.20844
 0             310          -999          -999          -999     
 10            310          -13.1042      -999          -13.1042 
 20            310          -7.06832      -999          -7.06832 
 30            310          -3.556139     -999          -3.556139
 40            310          -1.119463     -999          -1.119463
 50            310           .300768      -999           .300768 
 60            310          -.843636      -999          -.843636 
 70            310          -2.474381     -999          -2.474381
 80            310          -1.596644     -999          -1.596644
 90            310          -23.20844     -999          -23.20844
 0             320          -999          -999          -999     
 10            320          -13.1042      -999          -13.1042 
 20            320          -7.06832      -999          -7.06832 
 30            320          -3.556139     -999          -3.556139
 40            320          -.974866      -999          -.974866 
 50            320           .105363      -999           .105363 
 60            320          -1.325666     -999          -1.325666
 70            320          -3.218447     -999          -3.218447
 80            320          -1.596644     -999          -1.596644
 90            320          -23.20844     -999          -23.20844
 0             330          -999          -999          -999     
 10            330          -13.1042      -999          -13.1042 
 20            330          -7.06832      -999          -7.06832 
 30            330          -3.556139     -999          -3.556139
 40            330          -.85495       -999          -.85495  
 50            330          -.00942       -999          -.00942  
 60            330          -1.853186     -999          -1.853186
 70            330          -3.218447     -999          -3.218447
 80            330          -1.596644     -999          -1.596644
 90            330          -23.20844     -999          -23.20844
 0             340          -999          -999          -999     
 10            340          -13.1042      -999          -13.1042 
 20            340          -7.06832      -999          -7.06832 
 30            340          -3.52622      -999          -3.52622 
 40            340          -.795453      -999          -.795453 
 50            340          -.132703      -999          -.132703 
 60            340          -1.853186     -999          -1.853186
 70            340          -4.052835     -999          -4.052835
 80            340          -1.860059     -999          -1.860059
 90            340          -23.20844     -999          -23.20844
 0             350          -999          -999          -999     
 10            350          -13.1042      -999          -13.1042 
 20            350          -7.06832      -999          -7.06832 
 30            350          -3.473871     -999          -3.473871
 40            350          -.795453      -999          -.795453 
 50            350          -.132703      -999          -.132703 
 60            350          -2.424179     -999          -2.424179
 70            350          -4.052835     -999          -4.052835
 80            350          -1.860059     -999          -1.860059
 90            350          -23.20844     -999          -23.20844
 0             360          -999          -999          -999     
 10            360          -13.1042      -999          -13.1042 
 20            360          -7.06832      -999          -7.06832 
 30            360          -3.473871     -999          -3.473871
 40            360          -.738303      -999          -.738303 
 50            360          -.132703      -999          -.132703 
 60            360          -2.424179     -999          -2.424179
 70            360          -4.052835     -999          -4.052835
 80            360          -1.860059     -999          -1.860059
 90            360          -23.20844     -999          -23.20844