                   ****************************************
                     MINI-NUMERICAL ELECTROMAGNETICS CODE
                                   MININEC
                   ****************************************

FREQUENCY (MHZ): 7.15
    WAVE LENGTH =  41.93007  METERS

ENVIRONMENT (+1 FOR FREE SPACE, -1 FOR GROUND PLANE): -1
 NUMBER OF MEDIA (0 FOR PERFECTLY CONDUCTING GROUND):  2
 TYPE OF BOUNDARY (1-LINEAR, 2-CIRCULAR):  1
 RELATIVE DIELECTRIC CONSTANT, CONDUCTIVITY:  20 , .0303
 X OR R COORDINATE OF NEXT MEDIA INTERFACE:  5
 RELATIVE DIELECTRIC CONSTANT, CONDUCTIVITY:  20 , .0303
 HEIGHT OF MEDIA: -20

NO. OF WIRES: 1

WIRE NO. 1
            COORDINATES                                 END         NO. OF
   X             Y             Z          RADIUS     CONNECTION     SEGMENTS
 0             0             0                         -1
 0             0             10.0838       .0127        0             20

                  **** ANTENNA GEOMETRY ****

WIRE NO.  1  COORDINATES                                CONNECTION PULSE
X             Y             Z             RADIUS        END1 END2  NO.
 0             0             0             .0127        -1    1   1
 0             0             .50419        .0127         1    1   2
 0             0             1.00838       .0127         1    1   3
 0             0             1.51257       .0127         1    1   4
 0             0             2.01676       .0127         1    1   5
 0             0             2.52095       .0127         1    1   6
 0             0             3.02514       .0127         1    1   7
 0             0             3.52933       .0127         1    1   8
 0             0             4.03352       .0127         1    1   9
 0             0             4.53771       .0127         1    1  10
 0             0             5.0419        .0127         1    1  11
 0             0             5.54609       .0127         1    1  12
 0             0             6.05028       .0127         1    1  13
 0             0             6.55447       .0127         1    1  14
 0             0             7.05866       .0127         1    1  15
 0             0             7.56285       .0127         1    1  16
 0             0             8.06704       .0127         1    1  17
 0             0             8.57123       .0127         1    1  18
 0             0             9.07542       .0127         1    1  19
 0             0             9.57961       .0127         1    0  20

NO. OF SOURCES :  1
PULSE NO., VOLTAGE MAGNITUDE, PHASE (DEGREES):  1 , 1 , 0
NUMBER OF LOADS 0

********************    SOURCE DATA     ********************
PULSE  1      VOLTAGE = ( 1 , 0 J)
              CURRENT = ( 2.790223E-02 ,  5.983541E-04 J)
              IMPEDANCE = ( 35.82295 , -.768211  J)
              POWER =  1.395112E-02  WATTS

********************    CURRENT DATA    ********************

WIRE NO.  1 :
PULSE         REAL          IMAGINARY     MAGNITUDE     PHASE
 NO.          (AMPS)        (AMPS)        (AMPS)        (DEGREES)
 1             2.790223E-02  5.983541E-04  2.790865E-02  1.228501 
 2             2.782316E-02  2.452580E-04  2.782424E-02  .505043  
 3             2.758631E-02 -2.486729E-06  2.758631E-02 -5.164848E-03 
 4             2.719286E-02 -2.096393E-04  2.719366E-02 -.441705  
 5             2.664471E-02 -3.862036E-04  2.664751E-02 -.83042   
 6             2.594454E-02 -5.360628E-04  2.595007E-02 -1.18367  
 7             2.509570E-02 -6.610295E-04  2.510441E-02 -1.508842 
 8             2.410227E-02 -7.620554E-04  2.411432E-02 -1.81095  
 9             2.296892E-02 -8.396929E-04  2.298426E-02 -2.093675 
 10            2.170089E-02 -8.943044E-04  2.171931E-02 -2.359852 
 11            2.030392E-02 -9.261688E-04  2.032504E-02 -2.611752 
 12            1.878412E-02 -9.355357E-04  1.880740E-02 -2.851238 
 13            1.714782E-02 -9.226526E-04  1.717262E-02 -3.079877 
 14            1.540139E-02 -8.877710E-04  1.542695E-02 -3.299009 
 15            1.355088E-02 -8.311347E-04  1.357634E-02 -3.509804 
 16            1.160152E-02 -7.529428E-04  1.162593E-02 -3.713309 
 17            9.556737E-03 -6.532702E-04  9.579039E-03 -3.910486 
 18            7.416101E-03 -5.318901E-04  7.435151E-03 -4.102286 
 19            5.170176E-03 -3.878208E-04  5.184701E-03 -4.289789 
 20            2.783613E-03 -2.178558E-04  2.792125E-03 -4.475057 
E              0             0             0             0

********************     FAR FIELD      ********************

ZENITH ANGLE : INITIAL,INCREMENT,NUMBER: 0 , 10 , 10
AZIMUTH ANGLE: INITIAL,INCREMENT,NUMBER: 0 , 10 , 37

********************    PATTERN DATA    ********************
ZENITH        AZIMUTH       VERTICAL      HORIZONTAL    TOTAL
 ANGLE         ANGLE        PATTERN (DB)  PATTERN (DB)  PATTERN (DB)
 0             0            -999          -999          -999     
 10            0            -13.10426     -999          -13.10426
 20            0            -7.068373     -999          -7.068373
 30            0            -3.473924     -999          -3.473924
 40            0            -.738356      -999          -.738356 
 50            0            -.132756      -999          -.132756 
 60            0            -2.424232     -999          -2.424232
 70            0            -4.052889     -999          -4.052889
 80            0            -1.860112     -999          -1.860112
 90            0            -23.2085      -999          -23.2085 
 0             10           -999          -999          -999     
 10            10           -13.10426     -999          -13.10426
 20            10           -7.068373     -999          -7.068373
 30            10           -3.473924     -999          -3.473924
 40            10           -.795507      -999          -.795507 
 50            10           -.132756      -999          -.132756 
 60            10           -2.424232     -999          -2.424232
 70            10           -4.052889     -999          -4.052889
 80            10           -1.860112     -999          -1.860112
 90            10           -23.2085      -999          -23.2085 
 0             20           -999          -999          -999     
 10            20           -13.10426     -999          -13.10426
 20            20           -7.068373     -999          -7.068373
 30            20           -3.526274     -999          -3.526274
 40            20           -.795507      -999          -.795507 
 50            20           -.132756      -999          -.132756 
 60            20           -1.853239     -999          -1.853239
 70            20           -4.052889     -999          -4.052889
 80            20           -1.860112     -999          -1.860112
 90            20           -23.2085      -999          -23.2085 
 0             30           -999          -999          -999     
 10            30           -13.10426     -999          -13.10426
 20            30           -7.068373     -999          -7.068373
 30            30           -3.556192     -999          -3.556192
 40            30           -.855003      -999          -.855003 
 50            30           -.009474      -999          -.009474 
 60            30           -1.853239     -999          -1.853239
 70            30           -3.2185       -999          -3.2185  
 80            30           -1.596697     -999          -1.596697
 90            30           -23.2085      -999          -23.2085 
 0             40           -999          -999          -999     
 10            40           -13.10426     -999          -13.10426
 20            40           -7.068373     -999          -7.068373
 30            40           -3.556192     -999          -3.556192
 40            40           -.97492       -999          -.97492  
 50            40            .10531       -999           .10531  
 60            40           -1.325719     -999          -1.325719
 70            40           -3.2185       -999          -3.2185  
 80            40           -1.596697     -999          -1.596697
 90            40           -23.2085      -999          -23.2085 
 0             50           -999          -999          -999     
 10            50           -13.10426     -999          -13.10426
 20            50           -7.068373     -999          -7.068373
 30            50           -3.556192     -999          -3.556192
 40            50           -1.119516     -999          -1.119516
 50            50            .300715      -999           .300715 
 60            50           -.843689      -999          -.843689 
 70            50           -2.474434     -999          -2.474434
 80            50           -1.596697     -999          -1.596697
 90            50           -23.2085      -999          -23.2085 
 0             60           -999          -999          -999     
 10            60           -13.10426     -999          -13.10426
 20            60           -7.068373     -999          -7.068373
 30            60           -3.556192     -999          -3.556192
 40            60           -1.14313      -999          -1.14313 
 50            60            .524398      -999           .524398 
 60            60            .329103      -999           .329103 
 70            60           -1.216028     -999          -1.216028
 80            60           -1.341682     -999          -1.341682
 90            60           -23.2085      -999          -23.2085 
 0             70           -999          -999          -999     
 10            70           -13.10426     -999          -13.10426
 20            70           -7.068373     -999          -7.068373
 30            70           -3.556192     -999          -3.556192
 40            70           -1.14313      -999          -1.14313 
 50            70            .56058       -999           .56058  
 60            70            1.437142     -999           1.437142
 70            70            .205086      -999           .205086 
 80            70           -.86219       -999          -.86219  
 90            70           -23.2085      -999          -23.2085 
 0             80           -999          -999          -999     
 10            80           -13.10426     -999          -13.10426
 20            80           -7.068373     -999          -7.068373
 30            80           -3.556192     -999          -3.556192
 40            80           -1.14313      -999          -1.14313 
 50            80            .56058       -999           .56058  
 60            80            1.650941     -999           1.650941
 70            80            2.015945     -999           2.015945
 80            80            .115841      -999           .115841 
 90            80           -23.2085      -999          -23.2085 
 0             90           -999          -999          -999     
 10            90           -13.10426     -999          -13.10426
 20            90           -7.068373     -999          -7.068373
 30            90           -3.556192     -999          -3.556192
 40            90           -1.14313      -999          -1.14313 
 50            90            .56058       -999           .56058  
 60            90            1.650941     -999           1.650941
 70            90            2.015945     -999           2.015945
 80            90            .9153        -999           .9153   
 90            90           -23.2085      -999          -23.2085 
 0             100          -999          -999          -999     
 10            100          -13.10426     -999          -13.10426
 20            100          -7.068373     -999          -7.068373
 30            100          -3.556192     -999          -3.556192
 40            100          -1.14313      -999          -1.14313 
 50            100           .56058       -999           .56058  
 60            100           1.650941     -999           1.650941
 70            100           2.015945     -999           2.015945
 80            100           .9153        -999           .9153   
 90            100          -23.2085      -999          -23.2085 
 0             110          -999          -999          -999     
 10            110          -13.10426     -999          -13.10426
 20            110          -7.068373     -999          -7.068373
 30            110          -3.556192     -999          -3.556192
 40            110          -1.14313      -999          -1.14313 
 50            110           .56058       -999           .56058  
 60            110           1.650941     -999           1.650941
 70            110           2.015945     -999           2.015945
 80            110           .9153        -999           .9153   
 90            110          -23.2085      -999          -23.2085 
 0             120          -999          -999          -999     
 10            120          -13.10426     -999          -13.10426
 20            120          -7.068373     -999          -7.068373
 30            120          -3.556192     -999          -3.556192
 40            120          -1.14313      -999          -1.14313 
 50            120           .56058       -999           .56058  
 60            120           1.650941     -999           1.650941
 70            120           2.015945     -999           2.015945
 80            120           .9153        -999           .9153   
 90            120          -23.2085      -999          -23.2085 
 0             130          -999          -999          -999     
 10            130          -13.10426     -999          -13.10426
 20            130          -7.068373     -999          -7.068373
 30            130          -3.556192     -999          -3.556192
 40            130          -1.14313      -999          -1.14313 
 50            130           .56058       -999           .56058  
 60            130           1.650941     -999           1.650941
 70            130           2.015945     -999           2.015945
 80            130           .9153        -999           .9153   
 90            130          -23.2085      -999          -23.2085 
 0             140          -999          -999          -999     
 10            140          -13.10426     -999          -13.10426
 20            140          -7.068373     -999          -7.068373
 30            140          -3.556192     -999          -3.556192
 40            140          -1.14313      -999          -1.14313 
 50            140           .56058       -999           .56058  
 60            140           1.650941     -999           1.650941
 70            140           2.015945     -999           2.015945
 80            140           .9153        -999           .9153   
 90            140          -23.2085      -999          -23.2085 
 0             150          -999          -999          -999     
 10            150          -13.10426     -999          -13.10426
 20            150          -7.068373     -999          -7.068373
 30            150          -3.556192     -999          -3.556192
 40            150          -1.14313      -999          -1.14313 
 50            150           .56058       -999           .56058  
 60            150           1.650941     -999           1.650941
 70            150           2.015945     -999           2.015945
 80            150           .9153        -999           .9153   
 90            150          -23.2085      -999          -23.2085 
 0             160          -999          -999          -999     
 10            160          -13.10426     -999          -13.10426
 20            160          -7.068373     -999          -7.068373
 30            160          -3.556192     -999          -3.556192
 40            160          -1.14313      -999          -1.14313 
 50            160           .56058       -999           .56058  
 60            160           1.650941     -999           1.650941
 70            160           2.015945     -999           2.015945
 80            160           .9153        -999           .9153   
 90            160          -23.2085      -999          -23.2085 
 0             170          -999          -999          -999     
 10            170          -13.10426     -999          -13.10426
 20            170          -7.068373     -999          -7.068373
 30            170          -3.556192     -999          -3.556192
 40            170          -1.14313      -999          -1.14313 
 50            170           .56058       -999           .56058  
 60            170           1.650941     -999           1.650941
 70            170           2.015945     -999           2.015945
 80            170           .9153        -999           .9153   
 90            170          -23.2085      -999          -23.2085 
 0             180          -999          -999          -999     
 10            180          -13.10426     -999          -13.10426
 20            180          -7.068373     -999          -7.068373
 30            180          -3.556192     -999          -3.556192
 40            180          -1.14313      -999          -1.14313 
 50            180           .56058       -999           .56058  
 60            180           1.650941     -999           1.650941
 70            180           2.015945     -999           2.015945
 80            180           .9153        -999           .9153   
 90            180          -23.2085      -999          -23.2085 
 0             190          -999          -999          -999     
 10            190          -13.10426     -999          -13.10426
 20            190          -7.068373     -999          -7.068373
 30            190          -3.556192     -999          -3.556192
 40            190          -1.14313      -999          -1.14313 
 50            190           .56058       -999           .56058  
 60            190           1.650941     -999           1.650941
 70            190           2.015945     -999           2.015945
 80            190           .9153        -999           .9153   
 90            190          -23.2085      -999          -23.2085 
 0             200          -999          -999          -999     
 10            200          -13.10426     -999          -13.10426
 20            200          -7.068373     -999          -7.068373
 30            200          -3.556192     -999          -3.556192
 40            200          -1.14313      -999          -1.14313 
 50            200           .56058       -999           .56058  
 60            200           1.650941     -999           1.650941
 70            200           2.015945     -999           2.015945
 80            200           .9153        -999           .9153   
 90            200          -23.2085      -999          -23.2085 
 0             210          -999          -999          -999     
 10            210          -13.10426     -999          -13.10426
 20            210          -7.068373     -999          -7.068373
 30            210          -3.556192     -999          -3.556192
 40            210          -1.14313      -999          -1.14313 
 50            210           .56058       -999           .56058  
 60            210           1.650941     -999           1.650941
 70            210           2.015945     -999           2.015945
 80            210           .9153        -999           .9153   
 90            210          -23.2085      -999          -23.2085 
 0             220          -999          -999          -999     
 10            220          -13.10426     -999          -13.10426
 20            220          -7.068373     -999          -7.068373
 30            220          -3.556192     -999          -3.556192
 40            220          -1.14313      -999          -1.14313 
 50            220           .56058       -999           .56058  
 60            220           1.650941     -999           1.650941
 70            220           2.015945     -999           2.015945
 80            220           .9153        -999           .9153   
 90            220          -23.2085      -999          -23.2085 
 0             230          -999          -999          -999     
 10            230          -13.10426     -999          -13.10426
 20            230          -7.068373     -999          -7.068373
 30            230          -3.556192     -999          -3.556192
 40            230          -1.14313      -999          -1.14313 
 50            230           .56058       -999           .56058  
 60            230           1.650941     -999           1.650941
 70            230           2.015945     -999           2.015945
 80            230           .9153        -999           .9153   
 90            230          -23.2085      -999          -23.2085 
 0             240          -999          -999          -999     
 10            240          -13.10426     -999          -13.10426
 20            240          -7.068373     -999          -7.068373
 30            240          -3.556192     -999          -3.556192
 40            240          -1.14313      -999          -1.14313 
 50            240           .56058       -999           .56058  
 60            240           1.650941     -999           1.650941
 70            240           2.015945     -999           2.015945
 80            240           .9153        -999           .9153   
 90            240          -23.2085      -999          -23.2085 
 0             250          -999          -999          -999     
 10            250          -13.10426     -999          -13.10426
 20            250          -7.068373     -999          -7.068373
 30            250          -3.556192     -999          -3.556192
 40            250          -1.14313      -999          -1.14313 
 50            250           .56058       -999           .56058  
 60            250           1.650941     -999           1.650941
 70            250           2.015945     -999           2.015945
 80            250           .9153        -999           .9153   
 90            250          -23.2085      -999          -23.2085 
 0             260          -999          -999          -999     
 10            260          -13.10426     -999          -13.10426
 20            260          -7.068373     -999          -7.068373
 30            260          -3.556192     -999          -3.556192
 40            260          -1.14313      -999          -1.14313 
 50            260           .56058       -999           .56058  
 60            260           1.650941     -999           1.650941
 70            260           2.015945     -999           2.015945
 80            260           .9153        -999           .9153   
 90            260          -23.2085      -999          -23.2085 
 0             270          -999          -999          -999     
 10            270          -13.10426     -999          -13.10426
 20            270          -7.068373     -999          -7.068373
 30            270          -3.556192     -999          -3.556192
 40            270          -1.14313      -999          -1.14313 
 50            270           .56058       -999           .56058  
 60            270           1.650941     -999           1.650941
 70            270           2.015945     -999           2.015945
 80            270           .9153        -999           .9153   
 90            270          -23.2085      -999          -23.2085 
 0             280          -999          -999          -999     
 10            280          -13.10426     -999          -13.10426
 20            280          -7.068373     -999          -7.068373
 30            280          -3.556192     -999          -3.556192
 40            280          -1.14313      -999          -1.14313 
 50            280           .56058       -999           .56058  
 60            280           1.650941     -999           1.650941
 70            280           2.015945     -999           2.015945
 80            280           .115841      -999           .115841 
 90            280          -23.2085      -999          -23.2085 
 0             290          -999          -999          -999     
 10            290          -13.10426     -999          -13.10426
 20            290          -7.068373     -999          -7.068373
 30            290          -3.556192     -999          -3.556192
 40            290          -1.14313      -999          -1.14313 
 50            290           .56058       -999           .56058  
 60            290           1.437142     -999           1.437142
 70            290           .205086      -999           .205086 
 80            290          -.86219       -999          -.86219  
 90            290          -23.2085      -999          -23.2085 
 0             300          -999          -999          -999     
 10            300          -13.10426     -999          -13.10426
 20            300          -7.068373     -999          -7.068373
 30            300          -3.556192     -999          -3.556192
 40            300          -1.14313      -999          -1.14313 
 50            300           .524398      -999           .524398 
 60            300           .329103      -999           .329103 
 70            300          -1.216028     -999          -1.216028
 80            300          -1.341682     -999          -1.341682
 90            300          -23.2085      -999          -23.2085 
 0             310          -999          -999          -999     
 10            310          -13.10426     -999          -13.10426
 20            310          -7.068373     -999          -7.068373
 30            310          -3.556192     -999          -3.556192
 40            310          -1.119516     -999          -1.119516
 50            310           .300715      -999           .300715 
 60            310          -.843689      -999          -.843689 
 70            310          -2.474434     -999          -2.474434
 80            310          -1.596697     -999          -1.596697
 90            310          -23.2085      -999          -23.2085 
 0             320          -999          -999          -999     
 10            320          -13.10426     -999          -13.10426
 20            320          -7.068373     -999          -7.068373
 30            320          -3.556192     -999          -3.556192
 40            320          -.97492       -999          -.97492  
 50            320           .10531       -999           .10531  
 60            320          -1.325719     -999          -1.325719
 70            320          -3.2185       -999          -3.2185  
 80            320          -1.596697     -999          -1.596697
 90            320          -23.2085      -999          -23.2085 
 0             330          -999          -999          -999     
 10            330          -13.10426     -999          -13.10426
 20            330          -7.068373     -999          -7.068373
 30            330          -3.556192     -999          -3.556192
 40            330          -.855003      -999          -.855003 
 50            330          -.009474      -999          -.009474 
 60            330          -1.853239     -999          -1.853239
 70            330          -3.2185       -999          -3.2185  
 80            330          -1.596697     -999          -1.596697
 90            330          -23.2085      -999          -23.2085 
 0             340          -999          -999          -999     
 10            340          -13.10426     -999          -13.10426
 20            340          -7.068373     -999          -7.068373
 30            340          -3.526274     -999          -3.526274
 40            340          -.795507      -999          -.795507 
 50            340          -.132756      -999          -.132756 
 60            340          -1.853239     -999          -1.853239
 70            340          -4.052889     -999          -4.052889
 80            340          -1.860112     -999          -1.860112
 90            340          -23.2085      -999          -23.2085 
 0             350          -999          -999          -999     
 10            350          -13.10426     -999          -13.10426
 20            350          -7.068373     -999          -7.068373
 30            350          -3.473924     -999          -3.473924
 40            350          -.795507      -999          -.795507 
 50            350          -.132756      -999          -.132756 
 60            350          -2.424232     -999          -2.424232
 70            350          -4.052889     -999          -4.052889
 80            350          -1.860112     -999          -1.860112
 90            350          -23.2085      -999          -23.2085 
 0             360          -999          -999          -999     
 10            360          -13.10426     -999          -13.10426
 20            360          -7.068373     -999          -7.068373
 30            360          -3.473924     -999          -3.473924
 40            360          -.738356      -999          -.738356 
 50            360          -.132756      -999          -.132756 
 60            360          -2.424232     -999          -2.424232
 70            360          -4.052889     -999          -4.052889
 80            360          -1.860112     -999          -1.860112
 90            360          -23.2085      -999          -23.2085 
