                   ****************************************
                     MINI-NUMERICAL ELECTROMAGNETICS CODE
                                   MININEC
                       07-02-2022              13:11:06
                   ****************************************
 
FREQUENCY (MHZ): 7.15 
    WAVE LENGTH =  41.93007  METERS
 
ENVIRONMENT (+1 FOR FREE SPACE, -1 FOR GROUND PLANE): -1 
 NUMBER OF MEDIA (0 FOR PERFECTLY CONDUCTING GROUND):  0 
 
NO. OF WIRES: 1 
 
WIRE NO. 1 
            COORDINATES                                 END         NO. OF
   X             Y             Z          RADIUS     CONNECTION     SEGMENTS
 0             0             10.0838                     0 
 0             0             0             .0127        -1             20 
 
                  **** ANTENNA GEOMETRY ****
 
WIRE NO.  1  COORDINATES                                CONNECTION PULSE
X             Y             Z             RADIUS        END1 END2  NO.
 0             0             9.57961       .0127          0    1    1
 0             0             9.07542       .0127          1    1    2
 0             0             8.57123       .0127          1    1    3
 0             0             8.067041      .0127          1    1    4
 0             0             7.56285       .0127          1    1    5
 0             0             7.058661      .0127          1    1    6
 0             0             6.55447       .0127          1    1    7
 0             0             6.05028       .0127          1    1    8
 0             0             5.54609       .0127          1    1    9
 0             0             5.0419        .0127          1    1   10
 0             0             4.53771       .0127          1    1   11
 0             0             4.03352       .0127          1    1   12
 0             0             3.52933       .0127          1    1   13
 0             0             3.02514       .0127          1    1   14
 0             0             2.52095       .0127          1    1   15
 0             0             2.01676       .0127          1    1   16
 0             0             1.51257       .0127          1    1   17
 0             0             1.00838       .0127          1    1   18
 0             0             .5041895      .0127          1    1   19
 0             0             0             .0127          1   -1   20
 
NO. OF SOURCES :  1 
PULSE NO., VOLTAGE MAGNITUDE, PHASE (DEGREES):  20 , 1 , 0 
NUMBER OF LOADS 0 
 
FILL MATRIX  : 13:13:30
FACTOR MATRIX: 13:13:33
 
********************    SOURCE DATA     ********************
PULSE  20     VOLTAGE = ( 1 , 0 J)
              CURRENT = ( 2.789814E-02 , 5.312307E-04 J)
              IMPEDANCE = ( 35.8317 ,-.6822999 J)
              POWER =  1.394907E-02  WATTS
 
********************     FAR FIELD      ********************
 
ZENITH ANGLE : INITIAL,INCREMENT,NUMBER:  0 , 5 , 19 
AZIMUTH ANGLE: INITIAL,INCREMENT,NUMBER:  0 , 10 , 37 
 
 
FILENAME (NAME.OUT): VERTIGUD.GNN
 
********************    PATTERN DATA    ********************
ZENITH        AZIMUTH       VERTICAL      HORIZONTAL    TOTAL
 ANGLE         ANGLE        PATTERN (DB)  PATTERN (DB)  PATTERN (DB)
 0             0            -999          -999          -999 
 5             0            -18.05407     -999          -18.05407 
 10            0            -12.01953     -999          -12.01953 
 15            0            -8.476397     -999          -8.476397 
 20            0            -5.951665     -999          -5.951665 
 25            0            -3.986495     -999          -3.986495 
 30            0            -2.379356     -999          -2.379356 
 35            0            -1.025465     -999          -1.025465 
 40            0             .1351858     -999           .1351858 
 45            0             1.139006     -999           1.139006 
 50            0             2.008839     -999           2.008839 
 55            0             2.759249     -999           2.759249 
 60            0             3.399554     -999           3.399554 
 65            0             3.935653     -999           3.935653 
 70            0             4.371224     -999           4.371224 
 75            0             4.708481     -999           4.708481 
 80            0             4.948719     -999           4.948719 
 85            0             5.092636     -999           5.092636 
 90            0             5.140579     -999           5.140579 
 0             10           -999          -999          -999 
 5             10           -18.05407     -999          -18.05407 
 10            10           -12.01953     -999          -12.01953 
 15            10           -8.476397     -999          -8.476397 
 20            10           -5.951665     -999          -5.951665 
 25            10           -3.986495     -999          -3.986495 
 30            10           -2.379356     -999          -2.379356 
 35            10           -1.025465     -999          -1.025465 
 40            10            .1351858     -999           .1351858 
 45            10            1.139006     -999           1.139006 
 50            10            2.008839     -999           2.008839 
 55            10            2.759249     -999           2.759249 
 60            10            3.399554     -999           3.399554 
 65            10            3.935653     -999           3.935653 
 70            10            4.371224     -999           4.371224 
 75            10            4.708481     -999           4.708481 
 80            10            4.948719     -999           4.948719 
 85            10            5.092636     -999           5.092636 
 90            10            5.140579     -999           5.140579 
 0             20           -999          -999          -999 
 5             20           -18.05407     -999          -18.05407 
 10            20           -12.01953     -999          -12.01953 
 15            20           -8.476397     -999          -8.476397 
 20            20           -5.951665     -999          -5.951665 
 25            20           -3.986495     -999          -3.986495 
 30            20           -2.379356     -999          -2.379356 
 35            20           -1.025465     -999          -1.025465 
 40            20            .1351858     -999           .1351858 
 45            20            1.139006     -999           1.139006 
 50            20            2.008839     -999           2.008839 
 55            20            2.759249     -999           2.759249 
 60            20            3.399554     -999           3.399554 
 65            20            3.935653     -999           3.935653 
 70            20            4.371224     -999           4.371224 
 75            20            4.708481     -999           4.708481 
 80            20            4.948719     -999           4.948719 
 85            20            5.092636     -999           5.092636 
 90            20            5.140579     -999           5.140579 
 0             30           -999          -999          -999 
 5             30           -18.05407     -999          -18.05407 
 10            30           -12.01953     -999          -12.01953 
 15            30           -8.476397     -999          -8.476397 
 20            30           -5.951665     -999          -5.951665 
 25            30           -3.986495     -999          -3.986495 
 30            30           -2.379356     -999          -2.379356 
 35            30           -1.025465     -999          -1.025465 
 40            30            .1351858     -999           .1351858 
 45            30            1.139006     -999           1.139006 
 50            30            2.008839     -999           2.008839 
 55            30            2.759249     -999           2.759249 
 60            30            3.399554     -999           3.399554 
 65            30            3.935653     -999           3.935653 
 70            30            4.371224     -999           4.371224 
 75            30            4.708481     -999           4.708481 
 80            30            4.948719     -999           4.948719 
 85            30            5.092636     -999           5.092636 
 90            30            5.140579     -999           5.140579 
 0             40           -999          -999          -999 
 5             40           -18.05407     -999          -18.05407 
 10            40           -12.01953     -999          -12.01953 
 15            40           -8.476397     -999          -8.476397 
 20            40           -5.951665     -999          -5.951665 
 25            40           -3.986495     -999          -3.986495 
 30            40           -2.379356     -999          -2.379356 
 35            40           -1.025465     -999          -1.025465 
 40            40            .1351858     -999           .1351858 
 45            40            1.139006     -999           1.139006 
 50            40            2.008839     -999           2.008839 
 55            40            2.759249     -999           2.759249 
 60            40            3.399554     -999           3.399554 
 65            40            3.935653     -999           3.935653 
 70            40            4.371224     -999           4.371224 
 75            40            4.708481     -999           4.708481 
 80            40            4.948719     -999           4.948719 
 85            40            5.092636     -999           5.092636 
 90            40            5.140579     -999           5.140579 
 0             50           -999          -999          -999 
 5             50           -18.05407     -999          -18.05407 
 10            50           -12.01953     -999          -12.01953 
 15            50           -8.476397     -999          -8.476397 
 20            50           -5.951665     -999          -5.951665 
 25            50           -3.986495     -999          -3.986495 
 30            50           -2.379356     -999          -2.379356 
 35            50           -1.025465     -999          -1.025465 
 40            50            .1351858     -999           .1351858 
 45            50            1.139006     -999           1.139006 
 50            50            2.008839     -999           2.008839 
 55            50            2.759249     -999           2.759249 
 60            50            3.399554     -999           3.399554 
 65            50            3.935653     -999           3.935653 
 70            50            4.371224     -999           4.371224 
 75            50            4.708481     -999           4.708481 
 80            50            4.948719     -999           4.948719 
 85            50            5.092636     -999           5.092636 
 90            50            5.140579     -999           5.140579 
 0             60           -999          -999          -999 
 5             60           -18.05407     -999          -18.05407 
 10            60           -12.01953     -999          -12.01953 
 15            60           -8.476397     -999          -8.476397 
 20            60           -5.951665     -999          -5.951665 
 25            60           -3.986495     -999          -3.986495 
 30            60           -2.379356     -999          -2.379356 
 35            60           -1.025465     -999          -1.025465 
 40            60            .1351858     -999           .1351858 
 45            60            1.139006     -999           1.139006 
 50            60            2.008839     -999           2.008839 
 55            60            2.759249     -999           2.759249 
 60            60            3.399554     -999           3.399554 
 65            60            3.935653     -999           3.935653 
 70            60            4.371224     -999           4.371224 
 75            60            4.708481     -999           4.708481 
 80            60            4.948719     -999           4.948719 
 85            60            5.092636     -999           5.092636 
 90            60            5.140579     -999           5.140579 
 0             70           -999          -999          -999 
 5             70           -18.05407     -999          -18.05407 
 10            70           -12.01953     -999          -12.01953 
 15            70           -8.476397     -999          -8.476397 
 20            70           -5.951665     -999          -5.951665 
 25            70           -3.986495     -999          -3.986495 
 30            70           -2.379356     -999          -2.379356 
 35            70           -1.025465     -999          -1.025465 
 40            70            .1351858     -999           .1351858 
 45            70            1.139006     -999           1.139006 
 50            70            2.008839     -999           2.008839 
 55            70            2.759249     -999           2.759249 
 60            70            3.399554     -999           3.399554 
 65            70            3.935653     -999           3.935653 
 70            70            4.371224     -999           4.371224 
 75            70            4.708481     -999           4.708481 
 80            70            4.948719     -999           4.948719 
 85            70            5.092636     -999           5.092636 
 90            70            5.140579     -999           5.140579 
 0             80           -999          -999          -999 
 5             80           -18.05407     -999          -18.05407 
 10            80           -12.01953     -999          -12.01953 
 15            80           -8.476397     -999          -8.476397 
 20            80           -5.951665     -999          -5.951665 
 25            80           -3.986495     -999          -3.986495 
 30            80           -2.379356     -999          -2.379356 
 35            80           -1.025465     -999          -1.025465 
 40            80            .1351858     -999           .1351858 
 45            80            1.139006     -999           1.139006 
 50            80            2.008839     -999           2.008839 
 55            80            2.759249     -999           2.759249 
 60            80            3.399554     -999           3.399554 
 65            80            3.935653     -999           3.935653 
 70            80            4.371224     -999           4.371224 
 75            80            4.708481     -999           4.708481 
 80            80            4.948719     -999           4.948719 
 85            80            5.092636     -999           5.092636 
 90            80            5.140579     -999           5.140579 
 0             90           -999          -999          -999 
 5             90           -18.05407     -999          -18.05407 
 10            90           -12.01953     -999          -12.01953 
 15            90           -8.476397     -999          -8.476397 
 20            90           -5.951665     -999          -5.951665 
 25            90           -3.986495     -999          -3.986495 
 30            90           -2.379356     -999          -2.379356 
 35            90           -1.025465     -999          -1.025465 
 40            90            .1351858     -999           .1351858 
 45            90            1.139006     -999           1.139006 
 50            90            2.008839     -999           2.008839 
 55            90            2.759249     -999           2.759249 
 60            90            3.399554     -999           3.399554 
 65            90            3.935653     -999           3.935653 
 70            90            4.371224     -999           4.371224 
 75            90            4.708481     -999           4.708481 
 80            90            4.948719     -999           4.948719 
 85            90            5.092636     -999           5.092636 
 90            90            5.140579     -999           5.140579 
 0             100          -999          -999          -999 
 5             100          -18.05407     -999          -18.05407 
 10            100          -12.01953     -999          -12.01953 
 15            100          -8.476397     -999          -8.476397 
 20            100          -5.951665     -999          -5.951665 
 25            100          -3.986495     -999          -3.986495 
 30            100          -2.379356     -999          -2.379356 
 35            100          -1.025465     -999          -1.025465 
 40            100           .1351858     -999           .1351858 
 45            100           1.139006     -999           1.139006 
 50            100           2.008839     -999           2.008839 
 55            100           2.759249     -999           2.759249 
 60            100           3.399554     -999           3.399554 
 65            100           3.935653     -999           3.935653 
 70            100           4.371224     -999           4.371224 
 75            100           4.708481     -999           4.708481 
 80            100           4.948719     -999           4.948719 
 85            100           5.092636     -999           5.092636 
 90            100           5.140579     -999           5.140579 
 0             110          -999          -999          -999 
 5             110          -18.05407     -999          -18.05407 
 10            110          -12.01953     -999          -12.01953 
 15            110          -8.476397     -999          -8.476397 
 20            110          -5.951665     -999          -5.951665 
 25            110          -3.986495     -999          -3.986495 
 30            110          -2.379356     -999          -2.379356 
 35            110          -1.025465     -999          -1.025465 
 40            110           .1351858     -999           .1351858 
 45            110           1.139006     -999           1.139006 
 50            110           2.008839     -999           2.008839 
 55            110           2.759249     -999           2.759249 
 60            110           3.399554     -999           3.399554 
 65            110           3.935653     -999           3.935653 
 70            110           4.371224     -999           4.371224 
 75            110           4.708481     -999           4.708481 
 80            110           4.948719     -999           4.948719 
 85            110           5.092636     -999           5.092636 
 90            110           5.140579     -999           5.140579 
 0             120          -999          -999          -999 
 5             120          -18.05407     -999          -18.05407 
 10            120          -12.01953     -999          -12.01953 
 15            120          -8.476397     -999          -8.476397 
 20            120          -5.951665     -999          -5.951665 
 25            120          -3.986495     -999          -3.986495 
 30            120          -2.379356     -999          -2.379356 
 35            120          -1.025465     -999          -1.025465 
 40            120           .1351858     -999           .1351858 
 45            120           1.139006     -999           1.139006 
 50            120           2.008839     -999           2.008839 
 55            120           2.759249     -999           2.759249 
 60            120           3.399554     -999           3.399554 
 65            120           3.935653     -999           3.935653 
 70            120           4.371224     -999           4.371224 
 75            120           4.708481     -999           4.708481 
 80            120           4.948719     -999           4.948719 
 85            120           5.092636     -999           5.092636 
 90            120           5.140579     -999           5.140579 
 0             130          -999          -999          -999 
 5             130          -18.05407     -999          -18.05407 
 10            130          -12.01953     -999          -12.01953 
 15            130          -8.476397     -999          -8.476397 
 20            130          -5.951665     -999          -5.951665 
 25            130          -3.986495     -999          -3.986495 
 30            130          -2.379356     -999          -2.379356 
 35            130          -1.025465     -999          -1.025465 
 40            130           .1351858     -999           .1351858 
 45            130           1.139006     -999           1.139006 
 50            130           2.008839     -999           2.008839 
 55            130           2.759249     -999           2.759249 
 60            130           3.399554     -999           3.399554 
 65            130           3.935653     -999           3.935653 
 70            130           4.371224     -999           4.371224 
 75            130           4.708481     -999           4.708481 
 80            130           4.948719     -999           4.948719 
 85            130           5.092636     -999           5.092636 
 90            130           5.140579     -999           5.140579 
 0             140          -999          -999          -999 
 5             140          -18.05407     -999          -18.05407 
 10            140          -12.01953     -999          -12.01953 
 15            140          -8.476397     -999          -8.476397 
 20            140          -5.951665     -999          -5.951665 
 25            140          -3.986495     -999          -3.986495 
 30            140          -2.379356     -999          -2.379356 
 35            140          -1.025465     -999          -1.025465 
 40            140           .1351858     -999           .1351858 
 45            140           1.139006     -999           1.139006 
 50            140           2.008839     -999           2.008839 
 55            140           2.759249     -999           2.759249 
 60            140           3.399554     -999           3.399554 
 65            140           3.935653     -999           3.935653 
 70            140           4.371224     -999           4.371224 
 75            140           4.708481     -999           4.708481 
 80            140           4.948719     -999           4.948719 
 85            140           5.092636     -999           5.092636 
 90            140           5.140579     -999           5.140579 
 0             150          -999          -999          -999 
 5             150          -18.05407     -999          -18.05407 
 10            150          -12.01953     -999          -12.01953 
 15            150          -8.476397     -999          -8.476397 
 20            150          -5.951665     -999          -5.951665 
 25            150          -3.986495     -999          -3.986495 
 30            150          -2.379356     -999          -2.379356 
 35            150          -1.025465     -999          -1.025465 
 40            150           .1351858     -999           .1351858 
 45            150           1.139006     -999           1.139006 
 50            150           2.008839     -999           2.008839 
 55            150           2.759249     -999           2.759249 
 60            150           3.399554     -999           3.399554 
 65            150           3.935653     -999           3.935653 
 70            150           4.371224     -999           4.371224 
 75            150           4.708481     -999           4.708481 
 80            150           4.948719     -999           4.948719 
 85            150           5.092636     -999           5.092636 
 90            150           5.140579     -999           5.140579 
 0             160          -999          -999          -999 
 5             160          -18.05407     -999          -18.05407 
 10            160          -12.01953     -999          -12.01953 
 15            160          -8.476397     -999          -8.476397 
 20            160          -5.951665     -999          -5.951665 
 25            160          -3.986495     -999          -3.986495 
 30            160          -2.379356     -999          -2.379356 
 35            160          -1.025465     -999          -1.025465 
 40            160           .1351858     -999           .1351858 
 45            160           1.139006     -999           1.139006 
 50            160           2.008839     -999           2.008839 
 55            160           2.759249     -999           2.759249 
 60            160           3.399554     -999           3.399554 
 65            160           3.935653     -999           3.935653 
 70            160           4.371224     -999           4.371224 
 75            160           4.708481     -999           4.708481 
 80            160           4.948719     -999           4.948719 
 85            160           5.092636     -999           5.092636 
 90            160           5.140579     -999           5.140579 
 0             170          -999          -999          -999 
 5             170          -18.05407     -999          -18.05407 
 10            170          -12.01953     -999          -12.01953 
 15            170          -8.476397     -999          -8.476397 
 20            170          -5.951665     -999          -5.951665 
 25            170          -3.986495     -999          -3.986495 
 30            170          -2.379356     -999          -2.379356 
 35            170          -1.025465     -999          -1.025465 
 40            170           .1351858     -999           .1351858 
 45            170           1.139006     -999           1.139006 
 50            170           2.008839     -999           2.008839 
 55            170           2.759249     -999           2.759249 
 60            170           3.399554     -999           3.399554 
 65            170           3.935653     -999           3.935653 
 70            170           4.371224     -999           4.371224 
 75            170           4.708481     -999           4.708481 
 80            170           4.948719     -999           4.948719 
 85            170           5.092636     -999           5.092636 
 90            170           5.140579     -999           5.140579 
 0             180          -999          -999          -999 
 5             180          -18.05407     -999          -18.05407 
 10            180          -12.01953     -999          -12.01953 
 15            180          -8.476397     -999          -8.476397 
 20            180          -5.951665     -999          -5.951665 
 25            180          -3.986495     -999          -3.986495 
 30            180          -2.379356     -999          -2.379356 
 35            180          -1.025465     -999          -1.025465 
 40            180           .1351858     -999           .1351858 
 45            180           1.139006     -999           1.139006 
 50            180           2.008839     -999           2.008839 
 55            180           2.759249     -999           2.759249 
 60            180           3.399554     -999           3.399554 
 65            180           3.935653     -999           3.935653 
 70            180           4.371224     -999           4.371224 
 75            180           4.708481     -999           4.708481 
 80            180           4.948719     -999           4.948719 
 85            180           5.092636     -999           5.092636 
 90            180           5.140579     -999           5.140579 
 0             190          -999          -999          -999 
 5             190          -18.05407     -999          -18.05407 
 10            190          -12.01953     -999          -12.01953 
 15            190          -8.476397     -999          -8.476397 
 20            190          -5.951665     -999          -5.951665 
 25            190          -3.986495     -999          -3.986495 
 30            190          -2.379356     -999          -2.379356 
 35            190          -1.025465     -999          -1.025465 
 40            190           .1351858     -999           .1351858 
 45            190           1.139006     -999           1.139006 
 50            190           2.008839     -999           2.008839 
 55            190           2.759249     -999           2.759249 
 60            190           3.399554     -999           3.399554 
 65            190           3.935653     -999           3.935653 
 70            190           4.371224     -999           4.371224 
 75            190           4.708481     -999           4.708481 
 80            190           4.948719     -999           4.948719 
 85            190           5.092636     -999           5.092636 
 90            190           5.140579     -999           5.140579 
 0             200          -999          -999          -999 
 5             200          -18.05407     -999          -18.05407 
 10            200          -12.01953     -999          -12.01953 
 15            200          -8.476397     -999          -8.476397 
 20            200          -5.951665     -999          -5.951665 
 25            200          -3.986495     -999          -3.986495 
 30            200          -2.379356     -999          -2.379356 
 35            200          -1.025465     -999          -1.025465 
 40            200           .1351858     -999           .1351858 
 45            200           1.139006     -999           1.139006 
 50            200           2.008839     -999           2.008839 
 55            200           2.759249     -999           2.759249 
 60            200           3.399554     -999           3.399554 
 65            200           3.935653     -999           3.935653 
 70            200           4.371224     -999           4.371224 
 75            200           4.708481     -999           4.708481 
 80            200           4.948719     -999           4.948719 
 85            200           5.092636     -999           5.092636 
 90            200           5.140579     -999           5.140579 
 0             210          -999          -999          -999 
 5             210          -18.05407     -999          -18.05407 
 10            210          -12.01953     -999          -12.01953 
 15            210          -8.476397     -999          -8.476397 
 20            210          -5.951665     -999          -5.951665 
 25            210          -3.986495     -999          -3.986495 
 30            210          -2.379356     -999          -2.379356 
 35            210          -1.025465     -999          -1.025465 
 40            210           .1351858     -999           .1351858 
 45            210           1.139006     -999           1.139006 
 50            210           2.008839     -999           2.008839 
 55            210           2.759249     -999           2.759249 
 60            210           3.399554     -999           3.399554 
 65            210           3.935653     -999           3.935653 
 70            210           4.371224     -999           4.371224 
 75            210           4.708481     -999           4.708481 
 80            210           4.948719     -999           4.948719 
 85            210           5.092636     -999           5.092636 
 90            210           5.140579     -999           5.140579 
 0             220          -999          -999          -999 
 5             220          -18.05407     -999          -18.05407 
 10            220          -12.01953     -999          -12.01953 
 15            220          -8.476397     -999          -8.476397 
 20            220          -5.951665     -999          -5.951665 
 25            220          -3.986495     -999          -3.986495 
 30            220          -2.379356     -999          -2.379356 
 35            220          -1.025465     -999          -1.025465 
 40            220           .1351858     -999           .1351858 
 45            220           1.139006     -999           1.139006 
 50            220           2.008839     -999           2.008839 
 55            220           2.759249     -999           2.759249 
 60            220           3.399554     -999           3.399554 
 65            220           3.935653     -999           3.935653 
 70            220           4.371224     -999           4.371224 
 75            220           4.708481     -999           4.708481 
 80            220           4.948719     -999           4.948719 
 85            220           5.092636     -999           5.092636 
 90            220           5.140579     -999           5.140579 
 0             230          -999          -999          -999 
 5             230          -18.05407     -999          -18.05407 
 10            230          -12.01953     -999          -12.01953 
 15            230          -8.476397     -999          -8.476397 
 20            230          -5.951665     -999          -5.951665 
 25            230          -3.986495     -999          -3.986495 
 30            230          -2.379356     -999          -2.379356 
 35            230          -1.025465     -999          -1.025465 
 40            230           .1351858     -999           .1351858 
 45            230           1.139006     -999           1.139006 
 50            230           2.008839     -999           2.008839 
 55            230           2.759249     -999           2.759249 
 60            230           3.399554     -999           3.399554 
 65            230           3.935653     -999           3.935653 
 70            230           4.371224     -999           4.371224 
 75            230           4.708481     -999           4.708481 
 80            230           4.948719     -999           4.948719 
 85            230           5.092636     -999           5.092636 
 90            230           5.140579     -999           5.140579 
 0             240          -999          -999          -999 
 5             240          -18.05407     -999          -18.05407 
 10            240          -12.01953     -999          -12.01953 
 15            240          -8.476397     -999          -8.476397 
 20            240          -5.951665     -999          -5.951665 
 25            240          -3.986495     -999          -3.986495 
 30            240          -2.379356     -999          -2.379356 
 35            240          -1.025465     -999          -1.025465 
 40            240           .1351858     -999           .1351858 
 45            240           1.139006     -999           1.139006 
 50            240           2.008839     -999           2.008839 
 55            240           2.759249     -999           2.759249 
 60            240           3.399554     -999           3.399554 
 65            240           3.935653     -999           3.935653 
 70            240           4.371224     -999           4.371224 
 75            240           4.708481     -999           4.708481 
 80            240           4.948719     -999           4.948719 
 85            240           5.092636     -999           5.092636 
 90            240           5.140579     -999           5.140579 
 0             250          -999          -999          -999 
 5             250          -18.05407     -999          -18.05407 
 10            250          -12.01953     -999          -12.01953 
 15            250          -8.476397     -999          -8.476397 
 20            250          -5.951665     -999          -5.951665 
 25            250          -3.986495     -999          -3.986495 
 30            250          -2.379356     -999          -2.379356 
 35            250          -1.025465     -999          -1.025465 
 40            250           .1351858     -999           .1351858 
 45            250           1.139006     -999           1.139006 
 50            250           2.008839     -999           2.008839 
 55            250           2.759249     -999           2.759249 
 60            250           3.399554     -999           3.399554 
 65            250           3.935653     -999           3.935653 
 70            250           4.371224     -999           4.371224 
 75            250           4.708481     -999           4.708481 
 80            250           4.948719     -999           4.948719 
 85            250           5.092636     -999           5.092636 
 90            250           5.140579     -999           5.140579 
 0             260          -999          -999          -999 
 5             260          -18.05407     -999          -18.05407 
 10            260          -12.01953     -999          -12.01953 
 15            260          -8.476397     -999          -8.476397 
 20            260          -5.951665     -999          -5.951665 
 25            260          -3.986495     -999          -3.986495 
 30            260          -2.379356     -999          -2.379356 
 35            260          -1.025465     -999          -1.025465 
 40            260           .1351858     -999           .1351858 
 45            260           1.139006     -999           1.139006 
 50            260           2.008839     -999           2.008839 
 55            260           2.759249     -999           2.759249 
 60            260           3.399554     -999           3.399554 
 65            260           3.935653     -999           3.935653 
 70            260           4.371224     -999           4.371224 
 75            260           4.708481     -999           4.708481 
 80            260           4.948719     -999           4.948719 
 85            260           5.092636     -999           5.092636 
 90            260           5.140579     -999           5.140579 
 0             270          -999          -999          -999 
 5             270          -18.05407     -999          -18.05407 
 10            270          -12.01953     -999          -12.01953 
 15            270          -8.476397     -999          -8.476397 
 20            270          -5.951665     -999          -5.951665 
 25            270          -3.986495     -999          -3.986495 
 30            270          -2.379356     -999          -2.379356 
 35            270          -1.025465     -999          -1.025465 
 40            270           .1351858     -999           .1351858 
 45            270           1.139006     -999           1.139006 
 50            270           2.008839     -999           2.008839 
 55            270           2.759249     -999           2.759249 
 60            270           3.399554     -999           3.399554 
 65            270           3.935653     -999           3.935653 
 70            270           4.371224     -999           4.371224 
 75            270           4.708481     -999           4.708481 
 80            270           4.948719     -999           4.948719 
 85            270           5.092636     -999           5.092636 
 90            270           5.140579     -999           5.140579 
 0             280          -999          -999          -999 
 5             280          -18.05407     -999          -18.05407 
 10            280          -12.01953     -999          -12.01953 
 15            280          -8.476397     -999          -8.476397 
 20            280          -5.951665     -999          -5.951665 
 25            280          -3.986495     -999          -3.986495 
 30            280          -2.379356     -999          -2.379356 
 35            280          -1.025465     -999          -1.025465 
 40            280           .1351858     -999           .1351858 
 45            280           1.139006     -999           1.139006 
 50            280           2.008839     -999           2.008839 
 55            280           2.759249     -999           2.759249 
 60            280           3.399554     -999           3.399554 
 65            280           3.935653     -999           3.935653 
 70            280           4.371224     -999           4.371224 
 75            280           4.708481     -999           4.708481 
 80            280           4.948719     -999           4.948719 
 85            280           5.092636     -999           5.092636 
 90            280           5.140579     -999           5.140579 
 0             290          -999          -999          -999 
 5             290          -18.05407     -999          -18.05407 
 10            290          -12.01953     -999          -12.01953 
 15            290          -8.476397     -999          -8.476397 
 20            290          -5.951665     -999          -5.951665 
 25            290          -3.986495     -999          -3.986495 
 30            290          -2.379356     -999          -2.379356 
 35            290          -1.025465     -999          -1.025465 
 40            290           .1351858     -999           .1351858 
 45            290           1.139006     -999           1.139006 
 50            290           2.008839     -999           2.008839 
 55            290           2.759249     -999           2.759249 
 60            290           3.399554     -999           3.399554 
 65            290           3.935653     -999           3.935653 
 70            290           4.371224     -999           4.371224 
 75            290           4.708481     -999           4.708481 
 80            290           4.948719     -999           4.948719 
 85            290           5.092636     -999           5.092636 
 90            290           5.140579     -999           5.140579 
 0             300          -999          -999          -999 
 5             300          -18.05407     -999          -18.05407 
 10            300          -12.01953     -999          -12.01953 
 15            300          -8.476397     -999          -8.476397 
 20            300          -5.951665     -999          -5.951665 
 25            300          -3.986495     -999          -3.986495 
 30            300          -2.379356     -999          -2.379356 
 35            300          -1.025465     -999          -1.025465 
 40            300           .1351858     -999           .1351858 
 45            300           1.139006     -999           1.139006 
 50            300           2.008839     -999           2.008839 
 55            300           2.759249     -999           2.759249 
 60            300           3.399554     -999           3.399554 
 65            300           3.935653     -999           3.935653 
 70            300           4.371224     -999           4.371224 
 75            300           4.708481     -999           4.708481 
 80            300           4.948719     -999           4.948719 
 85            300           5.092636     -999           5.092636 
 90            300           5.140579     -999           5.140579 
 0             310          -999          -999          -999 
 5             310          -18.05407     -999          -18.05407 
 10            310          -12.01953     -999          -12.01953 
 15            310          -8.476397     -999          -8.476397 
 20            310          -5.951665     -999          -5.951665 
 25            310          -3.986495     -999          -3.986495 
 30            310          -2.379356     -999          -2.379356 
 35            310          -1.025465     -999          -1.025465 
 40            310           .1351858     -999           .1351858 
 45            310           1.139006     -999           1.139006 
 50            310           2.008839     -999           2.008839 
 55            310           2.759249     -999           2.759249 
 60            310           3.399554     -999           3.399554 
 65            310           3.935653     -999           3.935653 
 70            310           4.371224     -999           4.371224 
 75            310           4.708481     -999           4.708481 
 80            310           4.948719     -999           4.948719 
 85            310           5.092636     -999           5.092636 
 90            310           5.140579     -999           5.140579 
 0             320          -999          -999          -999 
 5             320          -18.05407     -999          -18.05407 
 10            320          -12.01953     -999          -12.01953 
 15            320          -8.476397     -999          -8.476397 
 20            320          -5.951665     -999          -5.951665 
 25            320          -3.986495     -999          -3.986495 
 30            320          -2.379356     -999          -2.379356 
 35            320          -1.025465     -999          -1.025465 
 40            320           .1351858     -999           .1351858 
 45            320           1.139006     -999           1.139006 
 50            320           2.008839     -999           2.008839 
 55            320           2.759249     -999           2.759249 
 60            320           3.399554     -999           3.399554 
 65            320           3.935653     -999           3.935653 
 70            320           4.371224     -999           4.371224 
 75            320           4.708481     -999           4.708481 
 80            320           4.948719     -999           4.948719 
 85            320           5.092636     -999           5.092636 
 90            320           5.140579     -999           5.140579 
 0             330          -999          -999          -999 
 5             330          -18.05407     -999          -18.05407 
 10            330          -12.01953     -999          -12.01953 
 15            330          -8.476397     -999          -8.476397 
 20            330          -5.951665     -999          -5.951665 
 25            330          -3.986495     -999          -3.986495 
 30            330          -2.379356     -999          -2.379356 
 35            330          -1.025465     -999          -1.025465 
 40            330           .1351858     -999           .1351858 
 45            330           1.139006     -999           1.139006 
 50            330           2.008839     -999           2.008839 
 55            330           2.759249     -999           2.759249 
 60            330           3.399554     -999           3.399554 
 65            330           3.935653     -999           3.935653 
 70            330           4.371224     -999           4.371224 
 75            330           4.708481     -999           4.708481 
 80            330           4.948719     -999           4.948719 
 85            330           5.092636     -999           5.092636 
 90            330           5.140579     -999           5.140579 
 0             340          -999          -999          -999 
 5             340          -18.05407     -999          -18.05407 
 10            340          -12.01953     -999          -12.01953 
 15            340          -8.476397     -999          -8.476397 
 20            340          -5.951665     -999          -5.951665 
 25            340          -3.986495     -999          -3.986495 
 30            340          -2.379356     -999          -2.379356 
 35            340          -1.025465     -999          -1.025465 
 40            340           .1351858     -999           .1351858 
 45            340           1.139006     -999           1.139006 
 50            340           2.008839     -999           2.008839 
 55            340           2.759249     -999           2.759249 
 60            340           3.399554     -999           3.399554 
 65            340           3.935653     -999           3.935653 
 70            340           4.371224     -999           4.371224 
 75            340           4.708481     -999           4.708481 
 80            340           4.948719     -999           4.948719 
 85            340           5.092636     -999           5.092636 
 90            340           5.140579     -999           5.140579 
 0             350          -999          -999          -999 
 5             350          -18.05407     -999          -18.05407 
 10            350          -12.01953     -999          -12.01953 
 15            350          -8.476397     -999          -8.476397 
 20            350          -5.951665     -999          -5.951665 
 25            350          -3.986495     -999          -3.986495 
 30            350          -2.379356     -999          -2.379356 
 35            350          -1.025465     -999          -1.025465 
 40            350           .1351858     -999           .1351858 
 45            350           1.139006     -999           1.139006 
 50            350           2.008839     -999           2.008839 
 55            350           2.759249     -999           2.759249 
 60            350           3.399554     -999           3.399554 
 65            350           3.935653     -999           3.935653 
 70            350           4.371224     -999           4.371224 
 75            350           4.708481     -999           4.708481 
 80            350           4.948719     -999           4.948719 
 85            350           5.092636     -999           5.092636 
 90            350           5.140579     -999           5.140579 
 0             360          -999          -999          -999 
 5             360          -18.05407     -999          -18.05407 
 10            360          -12.01953     -999          -12.01953 
 15            360          -8.476397     -999          -8.476397 
 20            360          -5.951665     -999          -5.951665 
 25            360          -3.986495     -999          -3.986495 
 30            360          -2.379356     -999          -2.379356 
 35            360          -1.025465     -999          -1.025465 
 40            360           .1351858     -999           .1351858 
 45            360           1.139006     -999           1.139006 
 50            360           2.008839     -999           2.008839 
 55            360           2.759249     -999           2.759249 
 60            360           3.399554     -999           3.399554 
 65            360           3.935653     -999           3.935653 
 70            360           4.371224     -999           4.371224 
 75            360           4.708481     -999           4.708481 
 80            360           4.948719     -999           4.948719 
 85            360           5.092636     -999           5.092636 
 90            360           5.140579     -999           5.140579 
