                   ****************************************
                     MINI-NUMERICAL ELECTROMAGNETICS CODE
                                   MININEC
                   ****************************************

FREQUENCY (MHZ): 7.15
    WAVE LENGTH =  41.93007  METERS

ENVIRONMENT (+1 FOR FREE SPACE, -1 FOR GROUND PLANE): -1
 NUMBER OF MEDIA (0 FOR PERFECTLY CONDUCTING GROUND):  2
 TYPE OF BOUNDARY (1-LINEAR, 2-CIRCULAR):  2
 RELATIVE DIELECTRIC CONSTANT, CONDUCTIVITY:  20 , .0303
 NUMBER OF RADIAL WIRES IN GROUND SCREEN:  16
 RADIUS OF RADIAL WIRES:  .001
 X OR R COORDINATE OF NEXT MEDIA INTERFACE:  5
 RELATIVE DIELECTRIC CONSTANT, CONDUCTIVITY:  5 , .001
 HEIGHT OF MEDIA: -5

NO. OF GEO-OBJECTS: 1

WIRE NO. 1
            COORDINATES                                 END         NO. OF
   X             Y             Z          RADIUS     CONNECTION     SEGMENTS
 0             0             0                         -1
 0             0             10.0838       .0127        0             20

                  **** ANTENNA GEOMETRY ****

WIRE NO.  1 COORDINATES                                 CONNECTION PULSE
X             Y             Z             RADIUS        END1 END2  NO.
 0             0             0             .0127        -1    1   1
 0             0             .50419        .0127         1    1   2
 0             0             1.00838       .0127         1    1   3
 0             0             1.51257       .0127         1    1   4
 0             0             2.01676       .0127         1    1   5
 0             0             2.52095       .0127         1    1   6
 0             0             3.02514       .0127         1    1   7
 0             0             3.52933       .0127         1    1   8
 0             0             4.03352       .0127         1    1   9
 0             0             4.53771       .0127         1    1  10
 0             0             5.0419        .0127         1    1  11
 0             0             5.54609       .0127         1    1  12
 0             0             6.05028       .0127         1    1  13
 0             0             6.55447       .0127         1    1  14
 0             0             7.05866       .0127         1    1  15
 0             0             7.56285       .0127         1    1  16
 0             0             8.06704       .0127         1    1  17
 0             0             8.57123       .0127         1    1  18
 0             0             9.07542       .0127         1    1  19
 0             0             9.57961       .0127         1    0  20

NO. OF SOURCES :  1
PULSE NO., VOLTAGE MAGNITUDE, PHASE (DEGREES):  1 , 1 , 0
NUMBER OF LOADS 0

********************    SOURCE DATA     ********************
PULSE  1      VOLTAGE = ( 1 , 0 J)
              CURRENT = ( 2.790223E-02 ,  5.983541E-04 J)
              IMPEDANCE = ( 35.82295 , -.768211  J)
              POWER =  1.395112E-02  WATTS

********************    CURRENT DATA    ********************

WIRE NO.  1 :
PULSE         REAL          IMAGINARY     MAGNITUDE     PHASE
 NO.          (AMPS)        (AMPS)        (AMPS)        (DEGREES)
 1             2.790223E-02  5.983541E-04  2.790865E-02  1.228501 
 2             2.782316E-02  2.452580E-04  2.782424E-02  .505043  
 3             2.758631E-02 -2.486729E-06  2.758631E-02 -5.164848E-03 
 4             2.719286E-02 -2.096393E-04  2.719366E-02 -.441705  
 5             2.664471E-02 -3.862036E-04  2.664751E-02 -.83042   
 6             2.594454E-02 -5.360628E-04  2.595007E-02 -1.18367  
 7             2.509570E-02 -6.610295E-04  2.510441E-02 -1.508842 
 8             2.410227E-02 -7.620554E-04  2.411432E-02 -1.81095  
 9             2.296892E-02 -8.396929E-04  2.298426E-02 -2.093675 
 10            2.170089E-02 -8.943044E-04  2.171931E-02 -2.359852 
 11            2.030392E-02 -9.261688E-04  2.032504E-02 -2.611752 
 12            1.878412E-02 -9.355357E-04  1.880740E-02 -2.851238 
 13            1.714782E-02 -9.226526E-04  1.717262E-02 -3.079877 
 14            1.540139E-02 -8.877710E-04  1.542695E-02 -3.299009 
 15            1.355088E-02 -8.311347E-04  1.357634E-02 -3.509804 
 16            1.160152E-02 -7.529428E-04  1.162593E-02 -3.713309 
 17            9.556737E-03 -6.532702E-04  9.579039E-03 -3.910486 
 18            7.416101E-03 -5.318901E-04  7.435151E-03 -4.102286 
 19            5.170176E-03 -3.878208E-04  5.184701E-03 -4.289789 
 20            2.783613E-03 -2.178558E-04  2.792125E-03 -4.475057 
E              0             0             0             0

********************     FAR FIELD      ********************

ZENITH ANGLE : INITIAL,INCREMENT,NUMBER: 0 , 5 , 19
AZIMUTH ANGLE: INITIAL,INCREMENT,NUMBER: 0 , 10 , 37

********************    PATTERN DATA    ********************
ZENITH        AZIMUTH       VERTICAL      HORIZONTAL    TOTAL
 ANGLE         ANGLE        PATTERN (DB)  PATTERN (DB)  PATTERN (DB)
 0             0            -999          -999          -999     
 5             0            -18.13427     -999          -18.13427
 10            0            -12.19615     -999          -12.19615
 15            0            -8.742977     -999          -8.742977
 20            0            -6.300246     -999          -6.300246
 25            0            -4.411805     -999          -4.411805
 30            0            -2.940061     -999          -2.940061
 35            0            -1.928179     -999          -1.928179
 40            0            -1.338131     -999          -1.338131
 45            0            -.850348      -999          -.850348 
 50            0            -.28877       -999          -.28877  
 55            0            -.188348      -999          -.188348 
 60            0             .012118      -999           .012118 
 65            0            -.044463      -999          -.044463 
 70            0            -.475726      -999          -.475726 
 75            0            -1.501194     -999          -1.501194
 80            0            -3.598082     -999          -3.598082
 85            0            -8.046129     -999          -8.046129
 90            0            -23.20844     -999          -23.20844
 0             10           -999          -999          -999     
 5             10           -18.13427     -999          -18.13427
 10            10           -12.19615     -999          -12.19615
 15            10           -8.742977     -999          -8.742977
 20            10           -6.300246     -999          -6.300246
 25            10           -4.411805     -999          -4.411805
 30            10           -2.940061     -999          -2.940061
 35            10           -1.928179     -999          -1.928179
 40            10           -1.338131     -999          -1.338131
 45            10           -.850348      -999          -.850348 
 50            10           -.28877       -999          -.28877  
 55            10           -.188348      -999          -.188348 
 60            10            .012118      -999           .012118 
 65            10           -.044463      -999          -.044463 
 70            10           -.475726      -999          -.475726 
 75            10           -1.501194     -999          -1.501194
 80            10           -3.598082     -999          -3.598082
 85            10           -8.046129     -999          -8.046129
 90            10           -23.20844     -999          -23.20844
 0             20           -999          -999          -999     
 5             20           -18.13427     -999          -18.13427
 10            20           -12.19615     -999          -12.19615
 15            20           -8.742977     -999          -8.742977
 20            20           -6.300246     -999          -6.300246
 25            20           -4.411805     -999          -4.411805
 30            20           -2.940061     -999          -2.940061
 35            20           -1.928179     -999          -1.928179
 40            20           -1.338131     -999          -1.338131
 45            20           -.850348      -999          -.850348 
 50            20           -.28877       -999          -.28877  
 55            20           -.188348      -999          -.188348 
 60            20            .012118      -999           .012118 
 65            20           -.044463      -999          -.044463 
 70            20           -.475726      -999          -.475726 
 75            20           -1.501194     -999          -1.501194
 80            20           -3.598082     -999          -3.598082
 85            20           -8.046129     -999          -8.046129
 90            20           -23.20844     -999          -23.20844
 0             30           -999          -999          -999     
 5             30           -18.13427     -999          -18.13427
 10            30           -12.19615     -999          -12.19615
 15            30           -8.742977     -999          -8.742977
 20            30           -6.300246     -999          -6.300246
 25            30           -4.411805     -999          -4.411805
 30            30           -2.940061     -999          -2.940061
 35            30           -1.928179     -999          -1.928179
 40            30           -1.338131     -999          -1.338131
 45            30           -.850348      -999          -.850348 
 50            30           -.28877       -999          -.28877  
 55            30           -.188348      -999          -.188348 
 60            30            .012118      -999           .012118 
 65            30           -.044463      -999          -.044463 
 70            30           -.475726      -999          -.475726 
 75            30           -1.501194     -999          -1.501194
 80            30           -3.598082     -999          -3.598082
 85            30           -8.046129     -999          -8.046129
 90            30           -23.20844     -999          -23.20844
 0             40           -999          -999          -999     
 5             40           -18.13427     -999          -18.13427
 10            40           -12.19615     -999          -12.19615
 15            40           -8.742977     -999          -8.742977
 20            40           -6.300246     -999          -6.300246
 25            40           -4.411805     -999          -4.411805
 30            40           -2.940061     -999          -2.940061
 35            40           -1.928179     -999          -1.928179
 40            40           -1.338131     -999          -1.338131
 45            40           -.850348      -999          -.850348 
 50            40           -.28877       -999          -.28877  
 55            40           -.188348      -999          -.188348 
 60            40            .012118      -999           .012118 
 65            40           -.044463      -999          -.044463 
 70            40           -.475726      -999          -.475726 
 75            40           -1.501194     -999          -1.501194
 80            40           -3.598082     -999          -3.598082
 85            40           -8.046129     -999          -8.046129
 90            40           -23.20844     -999          -23.20844
 0             50           -999          -999          -999     
 5             50           -18.13427     -999          -18.13427
 10            50           -12.19615     -999          -12.19615
 15            50           -8.742977     -999          -8.742977
 20            50           -6.300246     -999          -6.300246
 25            50           -4.411805     -999          -4.411805
 30            50           -2.940061     -999          -2.940061
 35            50           -1.928179     -999          -1.928179
 40            50           -1.338131     -999          -1.338131
 45            50           -.850348      -999          -.850348 
 50            50           -.28877       -999          -.28877  
 55            50           -.188348      -999          -.188348 
 60            50            .012118      -999           .012118 
 65            50           -.044463      -999          -.044463 
 70            50           -.475726      -999          -.475726 
 75            50           -1.501194     -999          -1.501194
 80            50           -3.598082     -999          -3.598082
 85            50           -8.046129     -999          -8.046129
 90            50           -23.20844     -999          -23.20844
 0             60           -999          -999          -999     
 5             60           -18.13427     -999          -18.13427
 10            60           -12.19615     -999          -12.19615
 15            60           -8.742977     -999          -8.742977
 20            60           -6.300246     -999          -6.300246
 25            60           -4.411805     -999          -4.411805
 30            60           -2.940061     -999          -2.940061
 35            60           -1.928179     -999          -1.928179
 40            60           -1.338131     -999          -1.338131
 45            60           -.850348      -999          -.850348 
 50            60           -.28877       -999          -.28877  
 55            60           -.188348      -999          -.188348 
 60            60            .012118      -999           .012118 
 65            60           -.044463      -999          -.044463 
 70            60           -.475726      -999          -.475726 
 75            60           -1.501194     -999          -1.501194
 80            60           -3.598082     -999          -3.598082
 85            60           -8.046129     -999          -8.046129
 90            60           -23.20844     -999          -23.20844
 0             70           -999          -999          -999     
 5             70           -18.13427     -999          -18.13427
 10            70           -12.19615     -999          -12.19615
 15            70           -8.742977     -999          -8.742977
 20            70           -6.300246     -999          -6.300246
 25            70           -4.411805     -999          -4.411805
 30            70           -2.940061     -999          -2.940061
 35            70           -1.928179     -999          -1.928179
 40            70           -1.338131     -999          -1.338131
 45            70           -.850348      -999          -.850348 
 50            70           -.28877       -999          -.28877  
 55            70           -.188348      -999          -.188348 
 60            70            .012118      -999           .012118 
 65            70           -.044463      -999          -.044463 
 70            70           -.475726      -999          -.475726 
 75            70           -1.501194     -999          -1.501194
 80            70           -3.598082     -999          -3.598082
 85            70           -8.046129     -999          -8.046129
 90            70           -23.20844     -999          -23.20844
 0             80           -999          -999          -999     
 5             80           -18.13427     -999          -18.13427
 10            80           -12.19615     -999          -12.19615
 15            80           -8.742977     -999          -8.742977
 20            80           -6.300246     -999          -6.300246
 25            80           -4.411805     -999          -4.411805
 30            80           -2.940061     -999          -2.940061
 35            80           -1.928179     -999          -1.928179
 40            80           -1.338131     -999          -1.338131
 45            80           -.850348      -999          -.850348 
 50            80           -.28877       -999          -.28877  
 55            80           -.188348      -999          -.188348 
 60            80            .012118      -999           .012118 
 65            80           -.044463      -999          -.044463 
 70            80           -.475726      -999          -.475726 
 75            80           -1.501194     -999          -1.501194
 80            80           -3.598082     -999          -3.598082
 85            80           -8.046129     -999          -8.046129
 90            80           -23.20844     -999          -23.20844
 0             90           -999          -999          -999     
 5             90           -18.13427     -999          -18.13427
 10            90           -12.19615     -999          -12.19615
 15            90           -8.742977     -999          -8.742977
 20            90           -6.300246     -999          -6.300246
 25            90           -4.411805     -999          -4.411805
 30            90           -2.940061     -999          -2.940061
 35            90           -1.928179     -999          -1.928179
 40            90           -1.338131     -999          -1.338131
 45            90           -.850348      -999          -.850348 
 50            90           -.28877       -999          -.28877  
 55            90           -.188348      -999          -.188348 
 60            90            .012118      -999           .012118 
 65            90           -.044463      -999          -.044463 
 70            90           -.475726      -999          -.475726 
 75            90           -1.501194     -999          -1.501194
 80            90           -3.598082     -999          -3.598082
 85            90           -8.046129     -999          -8.046129
 90            90           -23.20844     -999          -23.20844
 0             100          -999          -999          -999     
 5             100          -18.13427     -999          -18.13427
 10            100          -12.19615     -999          -12.19615
 15            100          -8.742977     -999          -8.742977
 20            100          -6.300246     -999          -6.300246
 25            100          -4.411805     -999          -4.411805
 30            100          -2.940061     -999          -2.940061
 35            100          -1.928179     -999          -1.928179
 40            100          -1.338131     -999          -1.338131
 45            100          -.850348      -999          -.850348 
 50            100          -.28877       -999          -.28877  
 55            100          -.188348      -999          -.188348 
 60            100           .012118      -999           .012118 
 65            100          -.044463      -999          -.044463 
 70            100          -.475726      -999          -.475726 
 75            100          -1.501194     -999          -1.501194
 80            100          -3.598082     -999          -3.598082
 85            100          -8.046129     -999          -8.046129
 90            100          -23.20844     -999          -23.20844
 0             110          -999          -999          -999     
 5             110          -18.13427     -999          -18.13427
 10            110          -12.19615     -999          -12.19615
 15            110          -8.742977     -999          -8.742977
 20            110          -6.300246     -999          -6.300246
 25            110          -4.411805     -999          -4.411805
 30            110          -2.940061     -999          -2.940061
 35            110          -1.928179     -999          -1.928179
 40            110          -1.338131     -999          -1.338131
 45            110          -.850348      -999          -.850348 
 50            110          -.28877       -999          -.28877  
 55            110          -.188348      -999          -.188348 
 60            110           .012118      -999           .012118 
 65            110          -.044463      -999          -.044463 
 70            110          -.475726      -999          -.475726 
 75            110          -1.501194     -999          -1.501194
 80            110          -3.598082     -999          -3.598082
 85            110          -8.046129     -999          -8.046129
 90            110          -23.20844     -999          -23.20844
 0             120          -999          -999          -999     
 5             120          -18.13427     -999          -18.13427
 10            120          -12.19615     -999          -12.19615
 15            120          -8.742977     -999          -8.742977
 20            120          -6.300246     -999          -6.300246
 25            120          -4.411805     -999          -4.411805
 30            120          -2.940061     -999          -2.940061
 35            120          -1.928179     -999          -1.928179
 40            120          -1.338131     -999          -1.338131
 45            120          -.850348      -999          -.850348 
 50            120          -.28877       -999          -.28877  
 55            120          -.188348      -999          -.188348 
 60            120           .012118      -999           .012118 
 65            120          -.044463      -999          -.044463 
 70            120          -.475726      -999          -.475726 
 75            120          -1.501194     -999          -1.501194
 80            120          -3.598082     -999          -3.598082
 85            120          -8.046129     -999          -8.046129
 90            120          -23.20844     -999          -23.20844
 0             130          -999          -999          -999     
 5             130          -18.13427     -999          -18.13427
 10            130          -12.19615     -999          -12.19615
 15            130          -8.742977     -999          -8.742977
 20            130          -6.300246     -999          -6.300246
 25            130          -4.411805     -999          -4.411805
 30            130          -2.940061     -999          -2.940061
 35            130          -1.928179     -999          -1.928179
 40            130          -1.338131     -999          -1.338131
 45            130          -.850348      -999          -.850348 
 50            130          -.28877       -999          -.28877  
 55            130          -.188348      -999          -.188348 
 60            130           .012118      -999           .012118 
 65            130          -.044463      -999          -.044463 
 70            130          -.475726      -999          -.475726 
 75            130          -1.501194     -999          -1.501194
 80            130          -3.598082     -999          -3.598082
 85            130          -8.046129     -999          -8.046129
 90            130          -23.20844     -999          -23.20844
 0             140          -999          -999          -999     
 5             140          -18.13427     -999          -18.13427
 10            140          -12.19615     -999          -12.19615
 15            140          -8.742977     -999          -8.742977
 20            140          -6.300246     -999          -6.300246
 25            140          -4.411805     -999          -4.411805
 30            140          -2.940061     -999          -2.940061
 35            140          -1.928179     -999          -1.928179
 40            140          -1.338131     -999          -1.338131
 45            140          -.850348      -999          -.850348 
 50            140          -.28877       -999          -.28877  
 55            140          -.188348      -999          -.188348 
 60            140           .012118      -999           .012118 
 65            140          -.044463      -999          -.044463 
 70            140          -.475726      -999          -.475726 
 75            140          -1.501194     -999          -1.501194
 80            140          -3.598082     -999          -3.598082
 85            140          -8.046129     -999          -8.046129
 90            140          -23.20844     -999          -23.20844
 0             150          -999          -999          -999     
 5             150          -18.13427     -999          -18.13427
 10            150          -12.19615     -999          -12.19615
 15            150          -8.742977     -999          -8.742977
 20            150          -6.300246     -999          -6.300246
 25            150          -4.411805     -999          -4.411805
 30            150          -2.940061     -999          -2.940061
 35            150          -1.928179     -999          -1.928179
 40            150          -1.338131     -999          -1.338131
 45            150          -.850348      -999          -.850348 
 50            150          -.28877       -999          -.28877  
 55            150          -.188348      -999          -.188348 
 60            150           .012118      -999           .012118 
 65            150          -.044463      -999          -.044463 
 70            150          -.475726      -999          -.475726 
 75            150          -1.501194     -999          -1.501194
 80            150          -3.598082     -999          -3.598082
 85            150          -8.046129     -999          -8.046129
 90            150          -23.20844     -999          -23.20844
 0             160          -999          -999          -999     
 5             160          -18.13427     -999          -18.13427
 10            160          -12.19615     -999          -12.19615
 15            160          -8.742977     -999          -8.742977
 20            160          -6.300246     -999          -6.300246
 25            160          -4.411805     -999          -4.411805
 30            160          -2.940061     -999          -2.940061
 35            160          -1.928179     -999          -1.928179
 40            160          -1.338131     -999          -1.338131
 45            160          -.850348      -999          -.850348 
 50            160          -.28877       -999          -.28877  
 55            160          -.188348      -999          -.188348 
 60            160           .012118      -999           .012118 
 65            160          -.044463      -999          -.044463 
 70            160          -.475726      -999          -.475726 
 75            160          -1.501194     -999          -1.501194
 80            160          -3.598082     -999          -3.598082
 85            160          -8.046129     -999          -8.046129
 90            160          -23.20844     -999          -23.20844
 0             170          -999          -999          -999     
 5             170          -18.13427     -999          -18.13427
 10            170          -12.19615     -999          -12.19615
 15            170          -8.742977     -999          -8.742977
 20            170          -6.300246     -999          -6.300246
 25            170          -4.411805     -999          -4.411805
 30            170          -2.940061     -999          -2.940061
 35            170          -1.928179     -999          -1.928179
 40            170          -1.338131     -999          -1.338131
 45            170          -.850348      -999          -.850348 
 50            170          -.28877       -999          -.28877  
 55            170          -.188348      -999          -.188348 
 60            170           .012118      -999           .012118 
 65            170          -.044463      -999          -.044463 
 70            170          -.475726      -999          -.475726 
 75            170          -1.501194     -999          -1.501194
 80            170          -3.598082     -999          -3.598082
 85            170          -8.046129     -999          -8.046129
 90            170          -23.20844     -999          -23.20844
 0             180          -999          -999          -999     
 5             180          -18.13427     -999          -18.13427
 10            180          -12.19615     -999          -12.19615
 15            180          -8.742977     -999          -8.742977
 20            180          -6.300246     -999          -6.300246
 25            180          -4.411805     -999          -4.411805
 30            180          -2.940061     -999          -2.940061
 35            180          -1.928179     -999          -1.928179
 40            180          -1.338131     -999          -1.338131
 45            180          -.850348      -999          -.850348 
 50            180          -.28877       -999          -.28877  
 55            180          -.188348      -999          -.188348 
 60            180           .012118      -999           .012118 
 65            180          -.044463      -999          -.044463 
 70            180          -.475726      -999          -.475726 
 75            180          -1.501194     -999          -1.501194
 80            180          -3.598082     -999          -3.598082
 85            180          -8.046129     -999          -8.046129
 90            180          -23.20844     -999          -23.20844
 0             190          -999          -999          -999     
 5             190          -18.13427     -999          -18.13427
 10            190          -12.19615     -999          -12.19615
 15            190          -8.742977     -999          -8.742977
 20            190          -6.300246     -999          -6.300246
 25            190          -4.411805     -999          -4.411805
 30            190          -2.940061     -999          -2.940061
 35            190          -1.928179     -999          -1.928179
 40            190          -1.338131     -999          -1.338131
 45            190          -.850348      -999          -.850348 
 50            190          -.28877       -999          -.28877  
 55            190          -.188348      -999          -.188348 
 60            190           .012118      -999           .012118 
 65            190          -.044463      -999          -.044463 
 70            190          -.475726      -999          -.475726 
 75            190          -1.501194     -999          -1.501194
 80            190          -3.598082     -999          -3.598082
 85            190          -8.046129     -999          -8.046129
 90            190          -23.20844     -999          -23.20844
 0             200          -999          -999          -999     
 5             200          -18.13427     -999          -18.13427
 10            200          -12.19615     -999          -12.19615
 15            200          -8.742977     -999          -8.742977
 20            200          -6.300246     -999          -6.300246
 25            200          -4.411805     -999          -4.411805
 30            200          -2.940061     -999          -2.940061
 35            200          -1.928179     -999          -1.928179
 40            200          -1.338131     -999          -1.338131
 45            200          -.850348      -999          -.850348 
 50            200          -.28877       -999          -.28877  
 55            200          -.188348      -999          -.188348 
 60            200           .012118      -999           .012118 
 65            200          -.044463      -999          -.044463 
 70            200          -.475726      -999          -.475726 
 75            200          -1.501194     -999          -1.501194
 80            200          -3.598082     -999          -3.598082
 85            200          -8.046129     -999          -8.046129
 90            200          -23.20844     -999          -23.20844
 0             210          -999          -999          -999     
 5             210          -18.13427     -999          -18.13427
 10            210          -12.19615     -999          -12.19615
 15            210          -8.742977     -999          -8.742977
 20            210          -6.300246     -999          -6.300246
 25            210          -4.411805     -999          -4.411805
 30            210          -2.940061     -999          -2.940061
 35            210          -1.928179     -999          -1.928179
 40            210          -1.338131     -999          -1.338131
 45            210          -.850348      -999          -.850348 
 50            210          -.28877       -999          -.28877  
 55            210          -.188348      -999          -.188348 
 60            210           .012118      -999           .012118 
 65            210          -.044463      -999          -.044463 
 70            210          -.475726      -999          -.475726 
 75            210          -1.501194     -999          -1.501194
 80            210          -3.598082     -999          -3.598082
 85            210          -8.046129     -999          -8.046129
 90            210          -23.20844     -999          -23.20844
 0             220          -999          -999          -999     
 5             220          -18.13427     -999          -18.13427
 10            220          -12.19615     -999          -12.19615
 15            220          -8.742977     -999          -8.742977
 20            220          -6.300246     -999          -6.300246
 25            220          -4.411805     -999          -4.411805
 30            220          -2.940061     -999          -2.940061
 35            220          -1.928179     -999          -1.928179
 40            220          -1.338131     -999          -1.338131
 45            220          -.850348      -999          -.850348 
 50            220          -.28877       -999          -.28877  
 55            220          -.188348      -999          -.188348 
 60            220           .012118      -999           .012118 
 65            220          -.044463      -999          -.044463 
 70            220          -.475726      -999          -.475726 
 75            220          -1.501194     -999          -1.501194
 80            220          -3.598082     -999          -3.598082
 85            220          -8.046129     -999          -8.046129
 90            220          -23.20844     -999          -23.20844
 0             230          -999          -999          -999     
 5             230          -18.13427     -999          -18.13427
 10            230          -12.19615     -999          -12.19615
 15            230          -8.742977     -999          -8.742977
 20            230          -6.300246     -999          -6.300246
 25            230          -4.411805     -999          -4.411805
 30            230          -2.940061     -999          -2.940061
 35            230          -1.928179     -999          -1.928179
 40            230          -1.338131     -999          -1.338131
 45            230          -.850348      -999          -.850348 
 50            230          -.28877       -999          -.28877  
 55            230          -.188348      -999          -.188348 
 60            230           .012118      -999           .012118 
 65            230          -.044463      -999          -.044463 
 70            230          -.475726      -999          -.475726 
 75            230          -1.501194     -999          -1.501194
 80            230          -3.598082     -999          -3.598082
 85            230          -8.046129     -999          -8.046129
 90            230          -23.20844     -999          -23.20844
 0             240          -999          -999          -999     
 5             240          -18.13427     -999          -18.13427
 10            240          -12.19615     -999          -12.19615
 15            240          -8.742977     -999          -8.742977
 20            240          -6.300246     -999          -6.300246
 25            240          -4.411805     -999          -4.411805
 30            240          -2.940061     -999          -2.940061
 35            240          -1.928179     -999          -1.928179
 40            240          -1.338131     -999          -1.338131
 45            240          -.850348      -999          -.850348 
 50            240          -.28877       -999          -.28877  
 55            240          -.188348      -999          -.188348 
 60            240           .012118      -999           .012118 
 65            240          -.044463      -999          -.044463 
 70            240          -.475726      -999          -.475726 
 75            240          -1.501194     -999          -1.501194
 80            240          -3.598082     -999          -3.598082
 85            240          -8.046129     -999          -8.046129
 90            240          -23.20844     -999          -23.20844
 0             250          -999          -999          -999     
 5             250          -18.13427     -999          -18.13427
 10            250          -12.19615     -999          -12.19615
 15            250          -8.742977     -999          -8.742977
 20            250          -6.300246     -999          -6.300246
 25            250          -4.411805     -999          -4.411805
 30            250          -2.940061     -999          -2.940061
 35            250          -1.928179     -999          -1.928179
 40            250          -1.338131     -999          -1.338131
 45            250          -.850348      -999          -.850348 
 50            250          -.28877       -999          -.28877  
 55            250          -.188348      -999          -.188348 
 60            250           .012118      -999           .012118 
 65            250          -.044463      -999          -.044463 
 70            250          -.475726      -999          -.475726 
 75            250          -1.501194     -999          -1.501194
 80            250          -3.598082     -999          -3.598082
 85            250          -8.046129     -999          -8.046129
 90            250          -23.20844     -999          -23.20844
 0             260          -999          -999          -999     
 5             260          -18.13427     -999          -18.13427
 10            260          -12.19615     -999          -12.19615
 15            260          -8.742977     -999          -8.742977
 20            260          -6.300246     -999          -6.300246
 25            260          -4.411805     -999          -4.411805
 30            260          -2.940061     -999          -2.940061
 35            260          -1.928179     -999          -1.928179
 40            260          -1.338131     -999          -1.338131
 45            260          -.850348      -999          -.850348 
 50            260          -.28877       -999          -.28877  
 55            260          -.188348      -999          -.188348 
 60            260           .012118      -999           .012118 
 65            260          -.044463      -999          -.044463 
 70            260          -.475726      -999          -.475726 
 75            260          -1.501194     -999          -1.501194
 80            260          -3.598082     -999          -3.598082
 85            260          -8.046129     -999          -8.046129
 90            260          -23.20844     -999          -23.20844
 0             270          -999          -999          -999     
 5             270          -18.13427     -999          -18.13427
 10            270          -12.19615     -999          -12.19615
 15            270          -8.742977     -999          -8.742977
 20            270          -6.300246     -999          -6.300246
 25            270          -4.411805     -999          -4.411805
 30            270          -2.940061     -999          -2.940061
 35            270          -1.928179     -999          -1.928179
 40            270          -1.338131     -999          -1.338131
 45            270          -.850348      -999          -.850348 
 50            270          -.28877       -999          -.28877  
 55            270          -.188348      -999          -.188348 
 60            270           .012118      -999           .012118 
 65            270          -.044463      -999          -.044463 
 70            270          -.475726      -999          -.475726 
 75            270          -1.501194     -999          -1.501194
 80            270          -3.598082     -999          -3.598082
 85            270          -8.046129     -999          -8.046129
 90            270          -23.20844     -999          -23.20844
 0             280          -999          -999          -999     
 5             280          -18.13427     -999          -18.13427
 10            280          -12.19615     -999          -12.19615
 15            280          -8.742977     -999          -8.742977
 20            280          -6.300246     -999          -6.300246
 25            280          -4.411805     -999          -4.411805
 30            280          -2.940061     -999          -2.940061
 35            280          -1.928179     -999          -1.928179
 40            280          -1.338131     -999          -1.338131
 45            280          -.850348      -999          -.850348 
 50            280          -.28877       -999          -.28877  
 55            280          -.188348      -999          -.188348 
 60            280           .012118      -999           .012118 
 65            280          -.044463      -999          -.044463 
 70            280          -.475726      -999          -.475726 
 75            280          -1.501194     -999          -1.501194
 80            280          -3.598082     -999          -3.598082
 85            280          -8.046129     -999          -8.046129
 90            280          -23.20844     -999          -23.20844
 0             290          -999          -999          -999     
 5             290          -18.13427     -999          -18.13427
 10            290          -12.19615     -999          -12.19615
 15            290          -8.742977     -999          -8.742977
 20            290          -6.300246     -999          -6.300246
 25            290          -4.411805     -999          -4.411805
 30            290          -2.940061     -999          -2.940061
 35            290          -1.928179     -999          -1.928179
 40            290          -1.338131     -999          -1.338131
 45            290          -.850348      -999          -.850348 
 50            290          -.28877       -999          -.28877  
 55            290          -.188348      -999          -.188348 
 60            290           .012118      -999           .012118 
 65            290          -.044463      -999          -.044463 
 70            290          -.475726      -999          -.475726 
 75            290          -1.501194     -999          -1.501194
 80            290          -3.598082     -999          -3.598082
 85            290          -8.046129     -999          -8.046129
 90            290          -23.20844     -999          -23.20844
 0             300          -999          -999          -999     
 5             300          -18.13427     -999          -18.13427
 10            300          -12.19615     -999          -12.19615
 15            300          -8.742977     -999          -8.742977
 20            300          -6.300246     -999          -6.300246
 25            300          -4.411805     -999          -4.411805
 30            300          -2.940061     -999          -2.940061
 35            300          -1.928179     -999          -1.928179
 40            300          -1.338131     -999          -1.338131
 45            300          -.850348      -999          -.850348 
 50            300          -.28877       -999          -.28877  
 55            300          -.188348      -999          -.188348 
 60            300           .012118      -999           .012118 
 65            300          -.044463      -999          -.044463 
 70            300          -.475726      -999          -.475726 
 75            300          -1.501194     -999          -1.501194
 80            300          -3.598082     -999          -3.598082
 85            300          -8.046129     -999          -8.046129
 90            300          -23.20844     -999          -23.20844
 0             310          -999          -999          -999     
 5             310          -18.13427     -999          -18.13427
 10            310          -12.19615     -999          -12.19615
 15            310          -8.742977     -999          -8.742977
 20            310          -6.300246     -999          -6.300246
 25            310          -4.411805     -999          -4.411805
 30            310          -2.940061     -999          -2.940061
 35            310          -1.928179     -999          -1.928179
 40            310          -1.338131     -999          -1.338131
 45            310          -.850348      -999          -.850348 
 50            310          -.28877       -999          -.28877  
 55            310          -.188348      -999          -.188348 
 60            310           .012118      -999           .012118 
 65            310          -.044463      -999          -.044463 
 70            310          -.475726      -999          -.475726 
 75            310          -1.501194     -999          -1.501194
 80            310          -3.598082     -999          -3.598082
 85            310          -8.046129     -999          -8.046129
 90            310          -23.20844     -999          -23.20844
 0             320          -999          -999          -999     
 5             320          -18.13427     -999          -18.13427
 10            320          -12.19615     -999          -12.19615
 15            320          -8.742977     -999          -8.742977
 20            320          -6.300246     -999          -6.300246
 25            320          -4.411805     -999          -4.411805
 30            320          -2.940061     -999          -2.940061
 35            320          -1.928179     -999          -1.928179
 40            320          -1.338131     -999          -1.338131
 45            320          -.850348      -999          -.850348 
 50            320          -.28877       -999          -.28877  
 55            320          -.188348      -999          -.188348 
 60            320           .012118      -999           .012118 
 65            320          -.044463      -999          -.044463 
 70            320          -.475726      -999          -.475726 
 75            320          -1.501194     -999          -1.501194
 80            320          -3.598082     -999          -3.598082
 85            320          -8.046129     -999          -8.046129
 90            320          -23.20844     -999          -23.20844
 0             330          -999          -999          -999     
 5             330          -18.13427     -999          -18.13427
 10            330          -12.19615     -999          -12.19615
 15            330          -8.742977     -999          -8.742977
 20            330          -6.300246     -999          -6.300246
 25            330          -4.411805     -999          -4.411805
 30            330          -2.940061     -999          -2.940061
 35            330          -1.928179     -999          -1.928179
 40            330          -1.338131     -999          -1.338131
 45            330          -.850348      -999          -.850348 
 50            330          -.28877       -999          -.28877  
 55            330          -.188348      -999          -.188348 
 60            330           .012118      -999           .012118 
 65            330          -.044463      -999          -.044463 
 70            330          -.475726      -999          -.475726 
 75            330          -1.501194     -999          -1.501194
 80            330          -3.598082     -999          -3.598082
 85            330          -8.046129     -999          -8.046129
 90            330          -23.20844     -999          -23.20844
 0             340          -999          -999          -999     
 5             340          -18.13427     -999          -18.13427
 10            340          -12.19615     -999          -12.19615
 15            340          -8.742977     -999          -8.742977
 20            340          -6.300246     -999          -6.300246
 25            340          -4.411805     -999          -4.411805
 30            340          -2.940061     -999          -2.940061
 35            340          -1.928179     -999          -1.928179
 40            340          -1.338131     -999          -1.338131
 45            340          -.850348      -999          -.850348 
 50            340          -.28877       -999          -.28877  
 55            340          -.188348      -999          -.188348 
 60            340           .012118      -999           .012118 
 65            340          -.044463      -999          -.044463 
 70            340          -.475726      -999          -.475726 
 75            340          -1.501194     -999          -1.501194
 80            340          -3.598082     -999          -3.598082
 85            340          -8.046129     -999          -8.046129
 90            340          -23.20844     -999          -23.20844
 0             350          -999          -999          -999     
 5             350          -18.13427     -999          -18.13427
 10            350          -12.19615     -999          -12.19615
 15            350          -8.742977     -999          -8.742977
 20            350          -6.300246     -999          -6.300246
 25            350          -4.411805     -999          -4.411805
 30            350          -2.940061     -999          -2.940061
 35            350          -1.928179     -999          -1.928179
 40            350          -1.338131     -999          -1.338131
 45            350          -.850348      -999          -.850348 
 50            350          -.28877       -999          -.28877  
 55            350          -.188348      -999          -.188348 
 60            350           .012118      -999           .012118 
 65            350          -.044463      -999          -.044463 
 70            350          -.475726      -999          -.475726 
 75            350          -1.501194     -999          -1.501194
 80            350          -3.598082     -999          -3.598082
 85            350          -8.046129     -999          -8.046129
 90            350          -23.20844     -999          -23.20844
 0             360          -999          -999          -999     
 5             360          -18.13427     -999          -18.13427
 10            360          -12.19615     -999          -12.19615
 15            360          -8.742977     -999          -8.742977
 20            360          -6.300246     -999          -6.300246
 25            360          -4.411805     -999          -4.411805
 30            360          -2.940061     -999          -2.940061
 35            360          -1.928179     -999          -1.928179
 40            360          -1.338131     -999          -1.338131
 45            360          -.850348      -999          -.850348 
 50            360          -.28877       -999          -.28877  
 55            360          -.188348      -999          -.188348 
 60            360           .012118      -999           .012118 
 65            360          -.044463      -999          -.044463 
 70            360          -.475726      -999          -.475726 
 75            360          -1.501194     -999          -1.501194
 80            360          -3.598082     -999          -3.598082
 85            360          -8.046129     -999          -8.046129
 90            360          -23.20844     -999          -23.20844