                   ****************************************
                     MINI-NUMERICAL ELECTROMAGNETICS CODE
                                   MININEC
                   ****************************************

FREQUENCY (MHZ): 14
    WAVE LENGTH =  21.41429  METERS

ENVIRONMENT (+1 FOR FREE SPACE, -1 FOR GROUND PLANE): -1
 NUMBER OF MEDIA (0 FOR PERFECTLY CONDUCTING GROUND):  1
 RELATIVE DIELECTRIC CONSTANT, CONDUCTIVITY:  13 , .005

NO. OF GEO-OBJECTS: 4

WIRE NO. 1
            COORDINATES                                 END         NO. OF
   X             Y             Z          RADIUS     CONNECTION     SEGMENTS
 3.017366      3.017366      10                         0
-3.017366     -3.017366      10            .000792      0             28

WIRE NO. 2
            COORDINATES                                 END         NO. OF
   X             Y             Z          RADIUS     CONNECTION     SEGMENTS
-3.017366     -3.017366      10                         1
-3.017366     -3.017366      12.4384       .000792      0              8

WIRE NO. 3
            COORDINATES                                 END         NO. OF
   X             Y             Z          RADIUS     CONNECTION     SEGMENTS
-3.017366     -3.017366      12.4384                    2
 3.017366      3.017366      12.4384       .000792      0             28

WIRE NO. 4
            COORDINATES                                 END         NO. OF
   X             Y             Z          RADIUS     CONNECTION     SEGMENTS
 3.017366      3.017366      12.4384                    3
 3.017366      3.017366      10            .000792      1              8

                  **** ANTENNA GEOMETRY ****

WIRE NO.  1 COORDINATES                                 CONNECTION PULSE
X             Y             Z             RADIUS        END1 END2  NO.
 2.80184       2.80184       10            .000792       0    1   1
 2.586314      2.586314      10            .000792       1    1   2
 2.370788      2.370788      10            .000792       1    1   3
 2.155261      2.155261      10            .000792       1    1   4
 1.939735      1.939735      10            .000792       1    1   5
 1.724209      1.724209      10            .000792       1    1   6
 1.508683      1.508683      10            .000792       1    1   7
 1.293157      1.293157      10            .000792       1    1   8
 1.077631      1.077631      10            .000792       1    1   9
 .862105       .862105       10            .000792       1    1  10
 .646578       .646578       10            .000792       1    1  11
 .431052       .431052       10            .000792       1    1  12
 .215526       .215526       10            .000792       1    1  13
 0             0             10            .000792       1    1  14
-.215526      -.215526       10            .000792       1    1  15
-.431052      -.431052       10            .000792       1    1  16
-.646578      -.646578       10            .000792       1    1  17
-.862105      -.862105       10            .000792       1    1  18
-1.077631     -1.077631      10            .000792       1    1  19
-1.293157     -1.293157      10            .000792       1    1  20
-1.508683     -1.508683      10            .000792       1    1  21
-1.724209     -1.724209      10            .000792       1    1  22
-1.939735     -1.939735      10            .000792       1    1  23
-2.155261     -2.155261      10            .000792       1    1  24
-2.370788     -2.370788      10            .000792       1    1  25
-2.586314     -2.586314      10            .000792       1    1  26
-2.80184      -2.80184       10            .000792       1    0  27

WIRE NO.  2 COORDINATES                                 CONNECTION PULSE
X             Y             Z             RADIUS        END1 END2  NO.
-3.017366     -3.017366      10            .000792       1    2  28
-3.017366     -3.017366      10.3048       .000792       2    2  29
-3.017366     -3.017366      10.6096       .000792       2    2  30
-3.017366     -3.017366      10.9144       .000792       2    2  31
-3.017366     -3.017366      11.2192       .000792       2    2  32
-3.017366     -3.017366      11.524        .000792       2    2  33
-3.017366     -3.017366      11.8288       .000792       2    2  34
-3.017366     -3.017366      12.1336       .000792       2    0  35

WIRE NO.  3 COORDINATES                                 CONNECTION PULSE
X             Y             Z             RADIUS        END1 END2  NO.
-3.017366     -3.017366      12.4384       .000792       2    3  36
-2.80184      -2.80184       12.4384       .000792       3    3  37
-2.586314     -2.586314      12.4384       .000792       3    3  38
-2.370788     -2.370788      12.4384       .000792       3    3  39
-2.155261     -2.155261      12.4384       .000792       3    3  40
-1.939735     -1.939735      12.4384       .000792       3    3  41
-1.724209     -1.724209      12.4384       .000792       3    3  42
-1.508683     -1.508683      12.4384       .000792       3    3  43
-1.293157     -1.293157      12.4384       .000792       3    3  44
-1.077631     -1.077631      12.4384       .000792       3    3  45
-.862105      -.862105       12.4384       .000792       3    3  46
-.646578      -.646578       12.4384       .000792       3    3  47
-.431052      -.431052       12.4384       .000792       3    3  48
-.215526      -.215526       12.4384       .000792       3    3  49
 0             0             12.4384       .000792       3    3  50
 .215526       .215526       12.4384       .000792       3    3  51
 .431052       .431052       12.4384       .000792       3    3  52
 .646578       .646578       12.4384       .000792       3    3  53
 .862105       .862105       12.4384       .000792       3    3  54
 1.077631      1.077631      12.4384       .000792       3    3  55
 1.293157      1.293157      12.4384       .000792       3    3  56
 1.508683      1.508683      12.4384       .000792       3    3  57
 1.724209      1.724209      12.4384       .000792       3    3  58
 1.939735      1.939735      12.4384       .000792       3    3  59
 2.155261      2.155261      12.4384       .000792       3    3  60
 2.370788      2.370788      12.4384       .000792       3    3  61
 2.586314      2.586314      12.4384       .000792       3    3  62
 2.80184       2.80184       12.4384       .000792       3    0  63

WIRE NO.  4 COORDINATES                                 CONNECTION PULSE
X             Y             Z             RADIUS        END1 END2  NO.
 3.017366      3.017366      12.4384       .000792       3    4  64
 3.017366      3.017366      12.1336       .000792       4    4  65
 3.017366      3.017366      11.8288       .000792       4    4  66
 3.017366      3.017366      11.524        .000792       4    4  67
 3.017366      3.017366      11.2192       .000792       4    4  68
 3.017366      3.017366      10.9144       .000792       4    4  69
 3.017366      3.017366      10.6096       .000792       4    4  70
 3.017366      3.017366      10.3048       .000792       4    4  71
 3.017366      3.017366      10            .000792       4    1  72

NO. OF SOURCES :  1
PULSE NO., VOLTAGE MAGNITUDE, PHASE (DEGREES): 14 , 1 , 0
NUMBER OF LOADS 0

********************    SOURCE DATA     ********************
PULSE 14      VOLTAGE = ( 1 , 0 J)
              CURRENT = ( 4.314881E-03 ,  4.712941E-04 J)
              IMPEDANCE = ( 229.0238 , -25.0152  J)
              POWER =  2.157440E-03  WATTS

********************    CURRENT DATA    ********************

WIRE NO.  1 :
PULSE         REAL          IMAGINARY     MAGNITUDE     PHASE
 NO.          (AMPS)        (AMPS)        (AMPS)        (DEGREES)
J              1.485011E-03 -4.560273E-04  1.553454E-03 -17.07103 
 1             1.832746E-03 -4.383167E-04  1.884430E-03 -13.45014 
 2             2.166345E-03 -4.125064E-04  2.205269E-03 -10.78096 
 3             2.483385E-03 -3.789691E-04  2.512135E-03 -8.676502 
 4             2.781419E-03 -3.379089E-04  2.801870E-03 -6.926802 
 5             3.058165E-03 -2.895260E-04  3.071840E-03 -5.408251 
 6             3.311535E-03 -2.340351E-04  3.319795E-03 -4.042526 
 7             3.539644E-03 -1.716621E-04  3.543804E-03 -2.776499 
 8             3.740808E-03 -1.026281E-04  3.742216E-03 -1.571501 
 9             3.913557E-03 -2.711878E-05  3.913651E-03 -.397022  
 10            4.056634E-03  5.477510E-05  4.057004E-03  .773595  
 11            4.169003E-03  1.431825E-04  4.171461E-03  1.967025 
 12            4.249851E-03  2.387679E-04  4.256553E-03  3.215648 
 13            4.298594E-03  3.438043E-04  4.312321E-03  4.57282  
 14            4.314881E-03  4.712941E-04  4.340543E-03  6.233439 
 15            4.298594E-03  3.438043E-04  4.312321E-03  4.572819 
 16            4.249852E-03  2.387678E-04  4.256554E-03  3.215646 
 17            4.169004E-03  1.431824E-04  4.171462E-03  1.967023 
 18            4.056636E-03  5.477497E-05  4.057006E-03  .773593  
 19            3.913559E-03 -2.711894E-05  3.913653E-03 -.397024  
 20            3.740810E-03 -1.026283E-04  3.742218E-03 -1.571503 
 21            3.539646E-03 -1.716624E-04  3.543806E-03 -2.7765   
 22            3.311539E-03 -2.340354E-04  3.319798E-03 -4.042526 
 23            3.058168E-03 -2.895262E-04  3.071843E-03 -5.408249 
 24            2.781422E-03 -3.379091E-04  2.801873E-03 -6.926799 
 25            2.483389E-03 -3.789694E-04  2.512138E-03 -8.676496 
 26            2.166349E-03 -4.125067E-04  2.205273E-03 -10.78095 
 27            1.832750E-03 -4.383170E-04  1.884435E-03 -13.45012 
J              1.485016E-03 -4.560276E-04  1.553458E-03 -17.07099 
WIRE NO.  2 :
PULSE         REAL          IMAGINARY     MAGNITUDE     PHASE
 NO.          (AMPS)        (AMPS)        (AMPS)        (DEGREES)
J              1.485016E-03 -4.560276E-04  1.553458E-03 -17.07099 
 29            1.131741E-03 -4.696100E-04  1.225304E-03 -22.53575 
 30            7.695001E-04 -4.798474E-04  9.068539E-04 -31.94698 
 31            4.013150E-04 -4.865639E-04  6.307125E-04 -50.48439 
 32            3.002186E-05 -4.896077E-04  4.905273E-04 -86.49112 
 33           -3.415488E-04 -4.888537E-04  5.963502E-04 -124.941  
 34           -7.105654E-04 -4.842037E-04  8.598583E-04 -145.7281 
 35           -1.074190E-03 -4.755760E-04  1.174758E-03 -156.1196 
J             -1.429413E-03 -4.627990E-04  1.502466E-03 -162.0597 
WIRE NO.  3 :
PULSE         REAL          IMAGINARY     MAGNITUDE     PHASE
 NO.          (AMPS)        (AMPS)        (AMPS)        (DEGREES)
J             -1.429413E-03 -4.627990E-04  1.502466E-03 -162.0597 
 37           -1.779052E-03 -4.499428E-04  1.835068E-03 -165.8069 
 38           -2.114419E-03 -4.371696E-04  2.159140E-03 -168.3183 
 39           -2.433102E-03 -4.245453E-04  2.469863E-03 -170.1023 
 40           -2.732654E-03 -4.121928E-04  2.763566E-03 -171.4222 
 41           -3.010792E-03 -4.002603E-04  3.037281E-03 -172.4274 
 42           -3.265424E-03 -3.889109E-04  3.288502E-03 -173.2081 
 43           -3.494659E-03 -3.783162E-04  3.515077E-03 -173.8215 
 44           -3.696812E-03 -3.686515E-04  3.715148E-03 -174.3052 
 45           -3.870405E-03 -3.600914E-04  3.887120E-03 -174.6847 
 46           -4.014180E-03 -3.528043E-04  4.029654E-03 -174.9772 
 47           -4.127094E-03 -3.469464E-04  4.141651E-03 -175.1947 
 48           -4.208333E-03 -3.426534E-04  4.222260E-03 -175.3451 
 49           -4.257312E-03 -3.400318E-04  4.270870E-03 -175.4335 
 50           -4.273678E-03 -3.391501E-04  4.287114E-03 -175.4626 
 51           -4.257313E-03 -3.400318E-04  4.270870E-03 -175.4335 
 52           -4.208334E-03 -3.426534E-04  4.222261E-03 -175.3451 
 53           -4.127095E-03 -3.469463E-04  4.141653E-03 -175.1947 
 54           -4.014181E-03 -3.528042E-04  4.029655E-03 -174.9772 
 55           -3.870407E-03 -3.600913E-04  3.887122E-03 -174.6847 
 56           -3.696814E-03 -3.686514E-04  3.715150E-03 -174.3052 
 57           -3.494662E-03 -3.783160E-04  3.515080E-03 -173.8215 
 58           -3.265427E-03 -3.889107E-04  3.288505E-03 -173.2081 
 59           -3.010795E-03 -4.002600E-04  3.037284E-03 -172.4274 
 60           -2.732657E-03 -4.121925E-04  2.763570E-03 -171.4222 
 61           -2.433105E-03 -4.245449E-04  2.469866E-03 -170.1023 
 62           -2.114423E-03 -4.371692E-04  2.159144E-03 -168.3184 
 63           -1.779056E-03 -4.499424E-04  1.835072E-03 -165.8069 
J             -1.429417E-03 -4.627986E-04  1.502470E-03 -162.0597 
WIRE NO.  4 :
PULSE         REAL          IMAGINARY     MAGNITUDE     PHASE
 NO.          (AMPS)        (AMPS)        (AMPS)        (DEGREES)
J             -1.429417E-03 -4.627986E-04  1.502470E-03 -162.0597 
 65           -1.074194E-03 -4.755757E-04  1.174762E-03 -156.1197 
 66           -7.105698E-04 -4.842034E-04  8.598618E-04 -145.7283 
 67           -3.415533E-04 -4.888533E-04  5.963524E-04 -124.9413 
 68            3.001739E-05 -4.896074E-04  4.905267E-04 -86.49164 
 69            4.013106E-04 -4.865636E-04  6.307094E-04 -50.48468 
 70            7.694957E-04 -4.798471E-04  9.068500E-04 -31.94711 
 71            1.131737E-03 -4.696096E-04  1.225300E-03 -22.53581 
J              1.485011E-03 -4.560273E-04  1.553454E-03 -17.07103 

********************     FAR FIELD      ********************

ZENITH ANGLE : INITIAL,INCREMENT,NUMBER: 0 , 10 , 10
AZIMUTH ANGLE: INITIAL,INCREMENT,NUMBER: 0 , 10 , 37

********************    PATTERN DATA    ********************
ZENITH        AZIMUTH       VERTICAL      HORIZONTAL    TOTAL
 ANGLE         ANGLE        PATTERN (DB)  PATTERN (DB)  PATTERN (DB)
 0             0            -7.066576     -7.066576     -4.056276
 10            0            -8.045285     -8.0281       -5.026384
 20            0            -9.923495     -10.05849     -6.980169
 30            0            -8.077285     -6.974972     -4.480949
 40            0            -4.815015     -1.515996      .150793 
 50            0            -3.651673      2.142873      3.158135
 60            0            -5.201733      3.868519      4.37569 
 70            0            -10.04239      3.405572      3.597594
 80            0            -16.91884     -.635252      -.534241 
 90            0            -999          -999          -999     
 0             10           -5.788986     -8.88445      -4.056276
 10            10           -6.775912     -9.854197     -5.037543
 20            10           -8.676663     -11.90705     -6.987879
 30            10           -6.869505     -8.863983     -4.742942
 40            10           -3.658401     -3.457065     -.546266 
 50            10           -2.548491      .147449       2.015697
 60            10           -4.147446      1.821806      2.801224
 70            10           -9.022809      1.316668      1.700807
 80            10           -15.9134      -2.75191      -2.547098
 90            10           -999          -999          -999     
 0             20           -4.910762     -11.53731     -4.056276
 10            20           -5.904916     -12.51429     -5.047358
 20            20           -7.825512     -14.58691     -6.994806
 30            20           -6.052804     -11.57954     -4.980337
 40            20           -2.886989     -6.218714     -1.230597
 50            20           -1.824551     -2.66251       .786948 
 60            20           -3.467102     -1.033916      .928011 
 70            20           -8.373465     -1.576829     -.752237 
 80            20           -15.27663     -5.670325     -5.219096
 90            20           -999          -999          -999     
 0             30           -4.3574       -15.79635     -4.056276
 10            30           -5.356921     -16.7787      -5.054644
 20            30           -7.292259     -18.86601     -7.000035
 30            30           -5.545189     -15.8852      -5.161096
 40            30           -2.413168     -10.55878     -1.793883
 50            30           -1.386265     -7.038746     -.341003 
 60            30           -3.061545     -5.444529     -1.081304
 70            30           -7.99122      -6.015904     -3.881912
 80            30           -14.9038      -10.12822     -8.879922
 90            30           -999          -999          -999     
 0             40           -4.089391     -25.25036     -4.056276
 10            40           -5.091767     -26.23556     -5.058521
 20            40           -7.034956     -28.3307      -7.002848
 30            40           -5.30155      -25.36405     -5.25895 
 40            40           -2.187574     -20.05599     -2.117199
 50            40           -1.179684     -16.55532     -1.055519
 60            40           -2.87251      -14.97954     -2.613065
 70            40           -7.814696     -15.56621     -7.14093 
 80            40           -14.73232     -19.68865     -13.52848
 90            40           -999          -294.5132     -294.5004
 0             50           -4.089391     -25.25036     -4.056276
 10            50           -5.091767     -26.23556     -5.058521
 20            50           -7.034956     -28.3307      -7.002848
 30            50           -5.30155      -25.36405     -5.25895 
 40            50           -2.187574     -20.05599     -2.117199
 50            50           -1.179684     -16.55532     -1.055519
 60            50           -2.87251      -14.97954     -2.613065
 70            50           -7.814696     -15.56621     -7.14093 
 80            50           -14.73232     -19.68865     -13.52848
 90            50           -999          -293.2451     -293.2355
 0             60           -4.3574       -15.79635     -4.056276
 10            60           -5.356921     -16.7787      -5.054644
 20            60           -7.292259     -18.86601     -7.000035
 30            60           -5.545189     -15.8852      -5.161096
 40            60           -2.413168     -10.55878     -1.793883
 50            60           -1.386265     -7.038746     -.341003 
 60            60           -3.061545     -5.444529     -1.081304
 70            60           -7.99122      -6.015904     -3.881912
 80            60           -14.9038      -10.12822     -8.879922
 90            60           -999          -999          -999     
 0             70           -4.910762     -11.53731     -4.056276
 10            70           -5.904916     -12.51429     -5.047358
 20            70           -7.825512     -14.58691     -6.994806
 30            70           -6.052804     -11.57954     -4.980337
 40            70           -2.886989     -6.218714     -1.230597
 50            70           -1.824551     -2.66251       .786948 
 60            70           -3.467102     -1.033916      .928011 
 70            70           -8.373465     -1.576829     -.752237 
 80            70           -15.27663     -5.670325     -5.219096
 90            70           -999          -999          -999     
 0             80           -5.788986     -8.88445      -4.056276
 10            80           -6.775912     -9.854197     -5.037543
 20            80           -8.676663     -11.90705     -6.987879
 30            80           -6.869505     -8.863983     -4.742942
 40            80           -3.658401     -3.457065     -.546266 
 50            80           -2.548491      .147449       2.015697
 60            80           -4.147446      1.821806      2.801224
 70            80           -9.022809      1.316668      1.700807
 80            80           -15.9134      -2.75191      -2.547098
 90            80           -999          -299.5281     -299.4881
 0             90           -7.066576     -7.066576     -4.056276
 10            90           -8.045285     -8.0281       -5.026384
 20            90           -9.923495     -10.05849     -6.980169
 30            90           -8.077285     -6.974972     -4.480949
 40            90           -4.815015     -1.515996      .150793 
 50            90           -3.651673      2.142873      3.158135
 60            90           -5.201733      3.868519      4.37569 
 70            90           -10.04239      3.405572      3.597594
 80            90           -16.91884     -.635252      -.534241 
 90            90           -999          -999          -999     
 0             100          -8.88445      -5.788986     -4.056276
 10            100          -9.854943     -6.742288     -5.015227
 20            100          -11.71064     -8.75025      -6.972637
 30            100          -9.82551      -5.626415     -4.226779
 40            100          -6.512425     -.115753       .780693 
 50            100          -5.296223      3.596867      4.123922
 60            100          -6.798087      5.373032      5.628786
 70            100          -11.60461      4.951491      5.046424
 80            100          -18.46707      .937833       .987357 
 90            100          -999          -999          -999     
 0             110          -11.53731     -4.910762     -4.056276
 10            110          -12.50058     -5.856837     -5.005417
 20            110          -14.3365      -7.845096     -6.966163
 30            110          -12.41725     -4.685924     -4.009252
 40            110          -9.059769      .869887       1.290256
 50            110          -7.797545      4.629289      4.870818
 60            110          -9.257588      6.449261      6.564428
 70            110          -14.03453      6.06351       6.105764
 80            110          -20.88482      2.073275      2.095196
 90            110          -999          -999          -999     
 0             120          -15.79635     -4.3574       -4.056276
 10            120          -16.75426     -5.298112     -4.998138
 20            120          -18.57552     -7.271761     -6.961448
 30            120          -16.63101     -4.08643      -3.85119 
 40            120          -13.24074      1.502712      1.646014
 50            120          -11.94463      5.296547      5.377756
 60            120          -13.37396      7.148672      7.187007
 70            120          -18.12922      6.78912       6.803092
 80            120          -24.97054      2.815999      2.823223
 90            120          -999          -999          -999     
 0             130          -25.25036     -4.089391     -4.056276
 10            130          -26.20541     -5.02725      -4.994264
 20            130          -28.01886     -6.99313      -6.958971
 30            130          -26.06093     -3.793903     -3.768211
 40            130          -22.65328      1.812911      1.828413
 50            130          -21.33924      5.62497       5.633698
 60            130          -22.75234      7.494078      7.498179
 70            130          -27.49613      7.148344      7.149834
 80            130          -34.33267      3.184238      3.185007
 90            130          -999          -999          -999     
 0             140          -25.25036     -4.089391     -4.056276
 10            140          -26.20543     -5.02725      -4.994265
 20            140          -28.01891     -6.993129     -6.958971
 30            140          -26.06099     -3.793903     -3.768211
 40            140          -22.65332      1.812911      1.828413
 50            140          -21.33927      5.62497       5.633698
 60            140          -22.75238      7.494078      7.498179
 70            140          -27.49621      7.148344      7.149834
 80            140          -34.33286      3.184238      3.185007
 90            140          -999          -999          -999     
 0             150          -15.79635     -4.3574       -4.056276
 10            150          -16.75427     -5.298112     -4.998138
 20            150          -18.57554     -7.27176      -6.961449
 30            150          -16.63103     -4.086429     -3.85119 
 40            150          -13.24075      1.502712      1.646014
 50            150          -11.94464      5.296548      5.377755
 60            150          -13.37398      7.148672      7.187007
 70            150          -18.12925      6.78912       6.803092
 80            150          -24.9706       2.815999      2.823223
 90            150          -999          -999          -999     
 0             160          -11.53731     -4.910762     -4.056276
 10            160          -12.50058     -5.856836     -5.005418
 20            160          -14.33652     -7.845095     -6.966164
 30            160          -12.41727     -4.685923     -4.009252
 40            160          -9.059776      .869887       1.290256
 50            160          -7.797551      4.629289      4.870818
 60            160          -9.257595      6.449261      6.564428
 70            160          -14.03455      6.06351       6.105763
 80            160          -20.88485      2.073275      2.095196
 90            160          -999          -999          -999     
 0             170          -8.88445      -5.788986     -4.056276
 10            170          -9.854946     -6.742288     -5.015227
 20            170          -11.71065     -8.750248     -6.972639
 30            170          -9.825518     -5.626414     -4.22678 
 40            170          -6.51243      -.115753       .780692 
 50            170          -5.296226      3.596867      4.123922
 60            170          -6.798092      5.373032      5.628785
 70            170          -11.60462      4.951491      5.046424
 80            170          -18.46709      .937832       .987356 
 90            170          -999          -999          -999     
 0             180          -7.066576     -7.066576     -4.056276
 10            180          -8.045286     -8.028099     -5.026384
 20            180          -9.923501     -10.05849     -6.980171
 30            180          -8.07729      -6.974971     -4.48095 
 40            180          -4.815018     -1.515996      .150793 
 50            180          -3.651675      2.142873      3.158134
 60            180          -5.201736      3.868519      4.375689
 70            180          -10.0424       3.405572      3.597594
 80            180          -16.91885     -.635252      -.534242 
 90            180          -999          -999          -999     
 0             190          -5.788986     -8.88445      -4.056276
 10            190          -6.775913     -9.854196     -5.037543
 20            190          -8.676667     -11.90704     -6.987881
 30            190          -6.869509     -8.863981     -4.742943
 40            190          -3.658403     -3.457064     -.546267 
 50            190          -2.548492      .14745        2.015696
 60            190          -4.147449      1.821806      2.801224
 70            190          -9.022814      1.316668      1.700807
 80            190          -15.91341     -2.75191      -2.547099
 90            190          -999          -999          -999     
 0             200          -4.910762     -11.53731     -4.056276
 10            200          -5.904917     -12.51429     -5.047359
 20            200          -7.825515     -14.58691     -6.994808
 30            200          -6.052807     -11.57954     -4.980339
 40            200          -2.886991     -6.218714     -1.230598
 50            200          -1.824553     -2.66251       .786948 
 60            200          -3.467104     -1.033916      .92801  
 70            200          -8.373469     -1.576829     -.752238 
 80            200          -15.27664     -5.670325     -5.219097
 90            200          -999          -999          -999     
 0             210          -4.3574       -15.79635     -4.056276
 10            210          -5.356922     -16.7787      -5.054645
 20            210          -7.292262     -18.86601     -7.000038
 30            210          -5.545192     -15.8852      -5.161098
 40            210          -2.41317      -10.55878     -1.793884
 50            210          -1.386266     -7.038746     -.341004 
 60            210          -3.061546     -5.444529     -1.081304
 70            210          -7.991223     -6.015904     -3.881913
 80            210          -14.90381     -10.12822     -8.879924
 90            210          -999          -999          -999     
 0             220          -4.089391     -25.25036     -4.056276
 10            220          -5.091768     -26.23556     -5.058522
 20            220          -7.034958     -28.33069     -7.002851
 30            220          -5.301552     -25.36404     -5.258952
 40            220          -2.187575     -20.05599     -2.1172  
 50            220          -1.179685     -16.55532     -1.05552 
 60            220          -2.872511     -14.97954     -2.613066
 70            220          -7.814699     -15.56621     -7.140932
 80            220          -14.73233     -19.68865     -13.52848
 90            220          -999          -299.8919     -299.8402
 0             230          -4.089391     -25.25036     -4.056276
 10            230          -5.091768     -26.23556     -5.058522
 20            230          -7.034958     -28.33069     -7.002851
 30            230          -5.301552     -25.36404     -5.258952
 40            230          -2.187575     -20.05599     -2.1172  
 50            230          -1.179685     -16.55532     -1.05552 
 60            230          -2.872511     -14.97954     -2.613066
 70            230          -7.814699     -15.56621     -7.140932
 80            230          -14.73233     -19.68865     -13.52848
 90            230          -999          -999          -999     
 0             240          -4.3574       -15.79635     -4.056276
 10            240          -5.356922     -16.7787      -5.054645
 20            240          -7.292262     -18.86601     -7.000038
 30            240          -5.545192     -15.8852      -5.161098
 40            240          -2.41317      -10.55878     -1.793884
 50            240          -1.386266     -7.038746     -.341004 
 60            240          -3.061546     -5.444529     -1.081304
 70            240          -7.991223     -6.015904     -3.881913
 80            240          -14.90381     -10.12822     -8.879924
 90            240          -999          -297.6912     -297.6657
 0             250          -4.910762     -11.53731     -4.056276
 10            250          -5.904917     -12.51429     -5.047359
 20            250          -7.825515     -14.58691     -6.994808
 30            250          -6.052807     -11.57954     -4.980339
 40            250          -2.886991     -6.218714     -1.230598
 50            250          -1.824553     -2.66251       .786948 
 60            250          -3.467104     -1.033916      .92801  
 70            250          -8.373469     -1.576829     -.752238 
 80            250          -15.27664     -5.670325     -5.219097
 90            250          -999          -999          -999     
 0             260          -5.788986     -8.88445      -4.056276
 10            260          -6.775913     -9.854196     -5.037543
 20            260          -8.676667     -11.90704     -6.987881
 30            260          -6.869509     -8.863981     -4.742943
 40            260          -3.658403     -3.457064     -.546267 
 50            260          -2.548492      .14745        2.015696
 60            260          -4.147449      1.821806      2.801224
 70            260          -9.022814      1.316668      1.700807
 80            260          -15.91341     -2.75191      -2.547099
 90            260          -999          -999          -999     
 0             270          -7.066576     -7.066576     -4.056276
 10            270          -8.045286     -8.028099     -5.026384
 20            270          -9.923501     -10.05849     -6.980171
 30            270          -8.07729      -6.974971     -4.48095 
 40            270          -4.815018     -1.515996      .150793 
 50            270          -3.651675      2.142873      3.158134
 60            270          -5.201736      3.868519      4.375689
 70            270          -10.0424       3.405572      3.597594
 80            270          -16.91885     -.635252      -.534242 
 90            270          -999          -999          -999     
 0             280          -8.88445      -5.788986     -4.056276
 10            280          -9.854946     -6.742288     -5.015227
 20            280          -11.71065     -8.750248     -6.972639
 30            280          -9.825518     -5.626414     -4.22678 
 40            280          -6.51243      -.115753       .780692 
 50            280          -5.296226      3.596867      4.123922
 60            280          -6.798092      5.373032      5.628785
 70            280          -11.60462      4.951491      5.046424
 80            280          -18.46709      .937832       .987356 
 90            280          -999          -999          -999     
 0             290          -11.53731     -4.910762     -4.056276
 10            290          -12.50058     -5.856836     -5.005418
 20            290          -14.33652     -7.845095     -6.966164
 30            290          -12.41727     -4.685923     -4.009252
 40            290          -9.059776      .869887       1.290256
 50            290          -7.797551      4.629289      4.870818
 60            290          -9.257595      6.449261      6.564428
 70            290          -14.03455      6.06351       6.105763
 80            290          -20.88485      2.073275      2.095196
 90            290          -999          -999          -999     
 0             300          -15.79635     -4.3574       -4.056276
 10            300          -16.75427     -5.298112     -4.998138
 20            300          -18.57554     -7.27176      -6.961449
 30            300          -16.63103     -4.086429     -3.85119 
 40            300          -13.24075      1.502712      1.646014
 50            300          -11.94464      5.296548      5.377755
 60            300          -13.37398      7.148672      7.187007
 70            300          -18.12925      6.78912       6.803092
 80            300          -24.9706       2.815999      2.823223
 90            300          -999          -999          -999     
 0             310          -25.25036     -4.089391     -4.056276
 10            310          -26.20543     -5.02725      -4.994265
 20            310          -28.01891     -6.993129     -6.958971
 30            310          -26.06099     -3.793903     -3.768211
 40            310          -22.65332      1.812911      1.828413
 50            310          -21.33927      5.62497       5.633698
 60            310          -22.75238      7.494078      7.498179
 70            310          -27.49621      7.148344      7.149834
 80            310          -34.33286      3.184238      3.185007
 90            310          -999          -999          -999     
 0             320          -25.25036     -4.089391     -4.056276
 10            320          -26.20541     -5.02725      -4.994264
 20            320          -28.01886     -6.99313      -6.958971
 30            320          -26.06093     -3.793903     -3.768211
 40            320          -22.65328      1.812911      1.828413
 50            320          -21.33924      5.62497       5.633698
 60            320          -22.75234      7.494078      7.498179
 70            320          -27.49613      7.148344      7.149834
 80            320          -34.33267      3.184238      3.185007
 90            320          -999          -999          -999     
 0             330          -15.79635     -4.3574       -4.056276
 10            330          -16.75426     -5.298112     -4.998138
 20            330          -18.57552     -7.271761     -6.961448
 30            330          -16.63101     -4.08643      -3.85119 
 40            330          -13.24074      1.502712      1.646014
 50            330          -11.94463      5.296547      5.377756
 60            330          -13.37396      7.148672      7.187007
 70            330          -18.12922      6.78912       6.803092
 80            330          -24.97054      2.815999      2.823223
 90            330          -999          -999          -999     
 0             340          -11.53731     -4.910762     -4.056276
 10            340          -12.50058     -5.856837     -5.005417
 20            340          -14.3365      -7.845096     -6.966163
 30            340          -12.41725     -4.685924     -4.009252
 40            340          -9.059769      .869887       1.290256
 50            340          -7.797545      4.629289      4.870818
 60            340          -9.257588      6.449261      6.564428
 70            340          -14.03453      6.06351       6.105764
 80            340          -20.88482      2.073275      2.095196
 90            340          -999          -999          -999     
 0             350          -8.88445      -5.788986     -4.056276
 10            350          -9.854943     -6.742288     -5.015227
 20            350          -11.71064     -8.75025      -6.972637
 30            350          -9.82551      -5.626415     -4.226779
 40            350          -6.512425     -.115753       .780693 
 50            350          -5.296223      3.596867      4.123922
 60            350          -6.798087      5.373032      5.628786
 70            350          -11.60461      4.951491      5.046424
 80            350          -18.46707      .937833       .987357 
 90            350          -999          -999          -999     
 0             360          -7.066576     -7.066576     -4.056276
 10            360          -8.045285     -8.0281       -5.026384
 20            360          -9.923495     -10.05849     -6.980169
 30            360          -8.077285     -6.974972     -4.480949
 40            360          -4.815015     -1.515996      .150793 
 50            360          -3.651673      2.142873      3.158135
 60            360          -5.201733      3.868519      4.37569 
 70            360          -10.04239      3.405572      3.597594
 80            360          -16.91884     -.635252      -.534241 
 90            360          -999          -999          -999     
