                   ****************************************
                     MINI-NUMERICAL ELECTROMAGNETICS CODE
                                   MININEC
                   ****************************************

FREQUENCY (MHZ): 14
    WAVE LENGTH =  21.41429  METERS

ENVIRONMENT (+1 FOR FREE SPACE, -1 FOR GROUND PLANE): -1
 NUMBER OF MEDIA (0 FOR PERFECTLY CONDUCTING GROUND):  1
 RELATIVE DIELECTRIC CONSTANT, CONDUCTIVITY:  13 , .005

NO. OF GEO-OBJECTS: 4

WIRE NO. 1
            COORDINATES                                 END         NO. OF
   X             Y             Z          RADIUS     CONNECTION     SEGMENTS
 0             4.2672        10                         0
 0            -4.2672        10            .000792      0             28

WIRE NO. 2
            COORDINATES                                 END         NO. OF
   X             Y             Z          RADIUS     CONNECTION     SEGMENTS
 0            -4.2672        10                         1
 0            -4.2672        12.4384       .000792      0              8

WIRE NO. 3
            COORDINATES                                 END         NO. OF
   X             Y             Z          RADIUS     CONNECTION     SEGMENTS
 0            -4.2672        12.4384                    2
 0             4.2672        12.4384       .000792      0             28

WIRE NO. 4
            COORDINATES                                 END         NO. OF
   X             Y             Z          RADIUS     CONNECTION     SEGMENTS
 0             4.2672        12.4384                    3
 0             4.2672        10            .000792      1              8

                  **** ANTENNA GEOMETRY ****

WIRE NO.  1 COORDINATES                                 CONNECTION PULSE
X             Y             Z             RADIUS        END1 END2  NO.
 0             3.9624        10            .000792       0    1   1
 0             3.6576        10            .000792       1    1   2
 0             3.3528        10            .000792       1    1   3
 0             3.048         10            .000792       1    1   4
 0             2.7432        10            .000792       1    1   5
 0             2.4384        10            .000792       1    1   6
 0             2.1336        10            .000792       1    1   7
 0             1.8288        10            .000792       1    1   8
 0             1.524         10            .000792       1    1   9
 0             1.2192        10            .000792       1    1  10
 0             .9144         10            .000792       1    1  11
 0             .6096         10            .000792       1    1  12
 0             .3048         10            .000792       1    1  13
 0             0             10            .000792       1    1  14
 0            -.3048         10            .000792       1    1  15
 0            -.6096         10            .000792       1    1  16
 0            -.9144         10            .000792       1    1  17
 0            -1.2192        10            .000792       1    1  18
 0            -1.524         10            .000792       1    1  19
 0            -1.8288        10            .000792       1    1  20
 0            -2.1336        10            .000792       1    1  21
 0            -2.4384        10            .000792       1    1  22
 0            -2.7432        10            .000792       1    1  23
 0            -3.048         10            .000792       1    1  24
 0            -3.3528        10            .000792       1    1  25
 0            -3.6576        10            .000792       1    1  26
 0            -3.9624        10            .000792       1    0  27

WIRE NO.  2 COORDINATES                                 CONNECTION PULSE
X             Y             Z             RADIUS        END1 END2  NO.
 0            -4.2672        10            .000792       1    2  28
 0            -4.2672        10.3048       .000792       2    2  29
 0            -4.2672        10.6096       .000792       2    2  30
 0            -4.2672        10.9144       .000792       2    2  31
 0            -4.2672        11.2192       .000792       2    2  32
 0            -4.2672        11.524        .000792       2    2  33
 0            -4.2672        11.8288       .000792       2    2  34
 0            -4.2672        12.1336       .000792       2    0  35

WIRE NO.  3 COORDINATES                                 CONNECTION PULSE
X             Y             Z             RADIUS        END1 END2  NO.
 0            -4.2672        12.4384       .000792       2    3  36
 0            -3.9624        12.4384       .000792       3    3  37
 0            -3.6576        12.4384       .000792       3    3  38
 0            -3.3528        12.4384       .000792       3    3  39
 0            -3.048         12.4384       .000792       3    3  40
 0            -2.7432        12.4384       .000792       3    3  41
 0            -2.4384        12.4384       .000792       3    3  42
 0            -2.1336        12.4384       .000792       3    3  43
 0            -1.8288        12.4384       .000792       3    3  44
 0            -1.524         12.4384       .000792       3    3  45
 0            -1.2192        12.4384       .000792       3    3  46
 0            -.9144         12.4384       .000792       3    3  47
 0            -.6096         12.4384       .000792       3    3  48
 0            -.3048         12.4384       .000792       3    3  49
 0             0             12.4384       .000792       3    3  50
 0             .3048         12.4384       .000792       3    3  51
 0             .6096         12.4384       .000792       3    3  52
 0             .9144         12.4384       .000792       3    3  53
 0             1.2192        12.4384       .000792       3    3  54
 0             1.524         12.4384       .000792       3    3  55
 0             1.8288        12.4384       .000792       3    3  56
 0             2.1336        12.4384       .000792       3    3  57
 0             2.4384        12.4384       .000792       3    3  58
 0             2.7432        12.4384       .000792       3    3  59
 0             3.048         12.4384       .000792       3    3  60
 0             3.3528        12.4384       .000792       3    3  61
 0             3.6576        12.4384       .000792       3    3  62
 0             3.9624        12.4384       .000792       3    0  63

WIRE NO.  4 COORDINATES                                 CONNECTION PULSE
X             Y             Z             RADIUS        END1 END2  NO.
 0             4.2672        12.4384       .000792       3    4  64
 0             4.2672        12.1336       .000792       4    4  65
 0             4.2672        11.8288       .000792       4    4  66
 0             4.2672        11.524        .000792       4    4  67
 0             4.2672        11.2192       .000792       4    4  68
 0             4.2672        10.9144       .000792       4    4  69
 0             4.2672        10.6096       .000792       4    4  70
 0             4.2672        10.3048       .000792       4    4  71
 0             4.2672        10            .000792       4    1  72

NO. OF SOURCES :  1
PULSE NO., VOLTAGE MAGNITUDE, PHASE (DEGREES): 14 , 1 , 0
NUMBER OF LOADS 0

********************    SOURCE DATA     ********************
PULSE 14      VOLTAGE = ( 1 , 0 J)
              CURRENT = ( 4.314948E-03 ,  4.705840E-04 J)
              IMPEDANCE = ( 229.0285 , -24.97763 J)
              POWER =  2.157474E-03  WATTS

********************    CURRENT DATA    ********************

WIRE NO.  1 :
PULSE         REAL          IMAGINARY     MAGNITUDE     PHASE
 NO.          (AMPS)        (AMPS)        (AMPS)        (DEGREES)
J              1.485036E-03 -4.562682E-04  1.553548E-03 -17.07926 
 1             1.832774E-03 -4.386155E-04  1.884528E-03 -13.45877 
 2             2.166378E-03 -4.128606E-04  2.205368E-03 -10.78984 
 3             2.483423E-03 -3.793759E-04  2.512233E-03 -8.685546 
 4             2.781461E-03 -3.383652E-04  2.801966E-03 -6.935962 
 5             3.058211E-03 -2.900283E-04  3.071933E-03 -5.417495 
 6             3.311586E-03 -2.345794E-04  3.319884E-03 -4.051835 
 7             3.539698E-03 -1.722442E-04  3.543886E-03 -2.785855 
 8             3.740866E-03 -1.032435E-04  3.742290E-03 -1.580894 
 9             3.913618E-03 -2.776263E-05  3.913716E-03 -.406441  
 10            4.056698E-03  5.410764E-05  4.057058E-03  .764157  
 11            4.169068E-03  1.424965E-04  4.171503E-03  1.957577 
 12            4.249917E-03  2.380685E-04  4.256580E-03  3.206199 
 13            4.298661E-03  3.430969E-04  4.312331E-03  4.56338  
 14            4.314948E-03  4.705840E-04  4.340533E-03  6.224024 
 15            4.298661E-03  3.430969E-04  4.312331E-03  4.56338  
 16            4.249917E-03  2.380685E-04  4.256580E-03  3.206199 
 17            4.169068E-03  1.424965E-04  4.171503E-03  1.957577 
 18            4.056698E-03  5.410765E-05  4.057058E-03  .764158  
 19            3.913618E-03 -2.776261E-05  3.913716E-03 -.406441  
 20            3.740866E-03 -1.032434E-04  3.742290E-03 -1.580894 
 21            3.539698E-03 -1.722442E-04  3.543886E-03 -2.785855 
 22            3.311586E-03 -2.345794E-04  3.319884E-03 -4.051834 
 23            3.058211E-03 -2.900282E-04  3.071933E-03 -5.417495 
 24            2.781461E-03 -3.383652E-04  2.801966E-03 -6.935961 
 25            2.483423E-03 -3.793759E-04  2.512233E-03 -8.685545 
 26            2.166378E-03 -4.128606E-04  2.205368E-03 -10.78984 
 27            1.832774E-03 -4.386154E-04  1.884528E-03 -13.45877 
J              1.485036E-03 -4.562682E-04  1.553548E-03 -17.07925 
WIRE NO.  2 :
PULSE         REAL          IMAGINARY     MAGNITUDE     PHASE
 NO.          (AMPS)        (AMPS)        (AMPS)        (DEGREES)
J              1.485036E-03 -4.562682E-04  1.553548E-03 -17.07925 
 29            1.131757E-03 -4.697918E-04  1.225389E-03 -22.54331 
 30            7.695126E-04 -4.799691E-04  9.069288E-04 -31.95308 
 31            4.013233E-04 -4.866244E-04  6.307644E-04 -50.48731 
 32            3.002590E-05 -4.896066E-04  4.905264E-04 -86.49064 
 33           -3.415490E-04 -4.887909E-04  5.962988E-04 -124.9444 
 34           -7.105698E-04 -4.840797E-04  8.597922E-04 -145.7351 
 35           -1.074198E-03 -4.753917E-04  1.174691E-03 -156.128  
J             -1.429425E-03 -4.625558E-04  1.502403E-03 -162.0686 
WIRE NO.  3 :
PULSE         REAL          IMAGINARY     MAGNITUDE     PHASE
 NO.          (AMPS)        (AMPS)        (AMPS)        (DEGREES)
J             -1.429425E-03 -4.625558E-04  1.502403E-03 -162.0686 
 37           -1.779069E-03 -4.496417E-04  1.835011E-03 -165.8161 
 38           -2.114440E-03 -4.368130E-04  2.159089E-03 -168.3277 
 39           -2.433127E-03 -4.241359E-04  2.469818E-03 -170.1117 
 40           -2.732684E-03 -4.117339E-04  2.763528E-03 -171.4317 
 41           -3.010826E-03 -3.997555E-04  3.037249E-03 -172.4369 
 42           -3.265463E-03 -3.883641E-04  3.288476E-03 -173.2176 
 43           -3.494702E-03 -3.777315E-04  3.515057E-03 -173.831  
 44           -3.696858E-03 -3.680334E-04  3.715133E-03 -174.3148 
 45           -3.870455E-03 -3.594446E-04  3.887110E-03 -174.6942 
 46           -4.014232E-03 -3.521338E-04  4.029647E-03 -174.9868 
 47           -4.127148E-03 -3.462572E-04  4.141648E-03 -175.2043 
 48           -4.208389E-03 -3.419508E-04  4.222258E-03 -175.3547 
 49           -4.257368E-03 -3.393211E-04  4.270869E-03 -175.443  
 50           -4.273734E-03 -3.384367E-04  4.287114E-03 -175.4722 
 51           -4.257368E-03 -3.393211E-04  4.270869E-03 -175.443  
 52           -4.208389E-03 -3.419508E-04  4.222258E-03 -175.3547 
 53           -4.127148E-03 -3.462572E-04  4.141648E-03 -175.2043 
 54           -4.014232E-03 -3.521338E-04  4.029647E-03 -174.9868 
 55           -3.870455E-03 -3.594447E-04  3.887110E-03 -174.6942 
 56           -3.696858E-03 -3.680335E-04  3.715133E-03 -174.3148 
 57           -3.494702E-03 -3.777316E-04  3.515057E-03 -173.831  
 58           -3.265463E-03 -3.883642E-04  3.288476E-03 -173.2176 
 59           -3.010826E-03 -3.997556E-04  3.037249E-03 -172.4369 
 60           -2.732684E-03 -4.117340E-04  2.763528E-03 -171.4317 
 61           -2.433127E-03 -4.241360E-04  2.469818E-03 -170.1117 
 62           -2.114440E-03 -4.368130E-04  2.159089E-03 -168.3277 
 63           -1.779069E-03 -4.496417E-04  1.835011E-03 -165.8161 
J             -1.429425E-03 -4.625559E-04  1.502403E-03 -162.0686 
WIRE NO.  4 :
PULSE         REAL          IMAGINARY     MAGNITUDE     PHASE
 NO.          (AMPS)        (AMPS)        (AMPS)        (DEGREES)
J             -1.429425E-03 -4.625559E-04  1.502403E-03 -162.0686 
 65           -1.074198E-03 -4.753918E-04  1.174691E-03 -156.128  
 66           -7.105698E-04 -4.840797E-04  8.597922E-04 -145.7351 
 67           -3.415490E-04 -4.887909E-04  5.962989E-04 -124.9444 
 68            3.002589E-05 -4.896066E-04  4.905264E-04 -86.49064 
 69            4.013233E-04 -4.866245E-04  6.307644E-04 -50.48731 
 70            7.695126E-04 -4.799691E-04  9.069288E-04 -31.95308 
 71            1.131757E-03 -4.697919E-04  1.225389E-03 -22.54331 
J              1.485036E-03 -4.562682E-04  1.553548E-03 -17.07926 

********************     FAR FIELD      ********************

ZENITH ANGLE : INITIAL,INCREMENT,NUMBER: 0 , 10 , 10
AZIMUTH ANGLE: INITIAL,INCREMENT,NUMBER: 0 , 10 , 37

********************    PATTERN DATA    ********************
ZENITH        AZIMUTH       VERTICAL      HORIZONTAL    TOTAL
 ANGLE         ANGLE        PATTERN (DB)  PATTERN (DB)  PATTERN (DB)
 0             0            -999          -4.056317     -4.056317
 10            0            -182.1463     -4.993803     -4.993803
 20            0            -176.2132     -6.958601     -6.958601
 30            0            -173.224      -3.757506     -3.757506
 40            0            -172.2134      1.851512      1.851512
 50            0            -173.26        5.665866      5.665866
 60            0            -174.9627      7.537123      7.537123
 70            0            -172.8827      7.193141      7.193141
 80            0            -172.355       3.230178      3.230178
 90            0            -999          -999          -999     
 0             10           -19.26291     -4.189288     -4.056317
 10            10           -20.21905     -5.128223     -4.99577 
 20            10           -22.0354      -7.096964     -6.959854
 30            10           -20.08244     -3.902921     -3.79949 
 40            10           -16.6814       1.697133      1.759765
 50            10           -15.3742       5.502247      5.537595
 60            10           -16.7935       7.364897      7.381536
 70            10           -21.54169      7.013916      7.019968
 80            10           -28.37991      3.046388      3.049514
 90            10           -999          -999          -999     
 0             20           -13.37528     -4.596601     -4.056317
 10            20           -14.33559     -5.539707     -5.001432
 20            20           -16.16334     -7.519809     -6.963496
 30            20           -14.23001     -4.346095     -3.921486
 40            20           -10.85442      1.228085      1.488955
 50            20           -9.573499      5.006498      5.155203
 60            20           -11.01659      6.844243      6.91474 
 70            20           -15.78158      6.472986      6.498751
 80            20           -22.62675      2.492223      2.505565
 90            20           -999          -999          -999     
 0             30           -10.07692     -5.305705     -4.056317
 10            30           -11.04361     -6.255203     -5.010109
 20            30           -12.88884     -8.252724     -6.969166
 30            30           -10.98565     -5.110225     -4.111699
 40            30           -7.649233      .424135       1.053091
 50            30           -6.40884       4.161352      4.526428
 60            30           -7.888712      5.960581      6.135991
 70            30           -12.67969      5.557901      5.622583
 80            30           -19.53558      1.556594      1.590236
 90            30           -999          -999          -999     
 0             40           -7.894967     -6.371238     -4.056317
 10            40           -8.8695       -7.32858      -5.020754
 20            40           -10.73619     -9.347491     -6.976271
 30            40           -8.870085     -6.243396     -4.350812
 40            40           -5.581995     -.758185       .478113 
 50            40           -4.39178       2.928017      3.666527
 60            40           -5.917323      4.679391      5.042335
 70            40           -10.74062      4.237553      4.373433
 80            40           -17.60979      .210589       .28174  
 90            40           -999          -999          -999     
 0             50           -6.371238     -7.894967     -4.056317
 10            50           -7.354114     -8.860658     -5.032084
 20            50           -9.243682     -10.90236     -6.984011
 30            50           -7.417161     -7.839274     -4.612791
 40            50           -4.180848     -2.406734     -.193522 
 50            50           -3.044597      1.224583      2.605023
 60            50           -4.619432      2.92427       3.628519
 70            50           -9.47768       2.439994      2.710647
 80            50           -16.36113     -1.61485      -1.471639
 90            50           -999          -999          -999     
 0             60           -5.305705     -10.07692     -4.056317
 10            60           -6.296422     -11.05046     -5.042734
 20            60           -8.207511     -13.1136      -6.991451
 30            60           -6.418315     -10.08918     -4.866623
 40            60           -3.230988     -4.706489     -.896075 
 50            60           -2.145992     -1.127321      1.403442
 60            60           -3.767814      .523061       1.897604
 70            60           -8.659443     -.001847       .552776 
 80            60           -15.55647     -4.083457     -3.784606
 90            60           -999          -999          -999     
 0             70           -4.596601     -13.37528     -4.056317
 10            70           -5.593713     -14.35522     -5.051416
 20            70           -7.522363     -16.43586     -6.997636
 30            70           -5.763685     -13.44306     -5.079478
 40            70           -2.616533     -8.101263     -1.534839
 50            70           -1.573719     -4.565028      .193533 
 60            70           -3.23434      -2.955387     -.082323 
 70            70           -8.153581     -3.513978     -2.231312
 80            70           -15.06179     -7.617832     -6.898506
 90            70           -999          -999          -999     
 0             80           -4.189288     -19.26291     -4.056317
 10            80           -5.190574     -20.24703     -5.057084
 20            80           -7.130697     -22.3391      -7.00173 
 30            80           -5.39198      -19.36698     -5.221478
 40            80           -2.27117      -14.052       -1.992125
 50            80           -1.256086     -10.54399     -.772377 
 60            80           -2.942275     -8.961216     -1.972843
 70            80           -7.87974      -9.542073     -5.621552
 80            80           -14.7953      -13.66066     -11.18073
 90            80           -999          -999          -999     
 0             90           -4.056317     -999          -4.056317
 10            90           -5.059053     -999          -5.059053
 20            90           -7.003162     -999          -7.003162
 30            90           -5.271386     -999          -5.271386
 40            90           -2.159746     -999          -2.159746
 50            90           -1.154329     -999          -1.154329
 60            90           -2.849444     -999          -2.849444
 70            90           -7.793276     -999          -7.793276
 80            90           -14.7114      -999          -14.7114 
 90            90           -999          -999          -999     
 0             100          -4.189288     -19.26291     -4.056317
 10            100          -5.190574     -20.24703     -5.057084
 20            100          -7.130697     -22.3391      -7.00173 
 30            100          -5.39198      -19.36698     -5.221478
 40            100          -2.27117      -14.052       -1.992125
 50            100          -1.256086     -10.54399     -.772377 
 60            100          -2.942275     -8.961216     -1.972843
 70            100          -7.87974      -9.542073     -5.621552
 80            100          -14.7953      -13.66066     -11.18073
 90            100          -999          -999          -999     
 0             110          -4.596601     -13.37528     -4.056317
 10            110          -5.593713     -14.35522     -5.051416
 20            110          -7.522363     -16.43586     -6.997636
 30            110          -5.763685     -13.44306     -5.079478
 40            110          -2.616533     -8.101263     -1.534839
 50            110          -1.573719     -4.565028      .193533 
 60            110          -3.23434      -2.955387     -.082323 
 70            110          -8.153581     -3.513978     -2.231312
 80            110          -15.06179     -7.617832     -6.898506
 90            110          -999          -999          -999     
 0             120          -5.305705     -10.07692     -4.056317
 10            120          -6.296422     -11.05046     -5.042734
 20            120          -8.207511     -13.1136      -6.991451
 30            120          -6.418315     -10.08918     -4.866623
 40            120          -3.230988     -4.706489     -.896075 
 50            120          -2.145992     -1.127321      1.403442
 60            120          -3.767814      .523061       1.897604
 70            120          -8.659443     -.001847       .552776 
 80            120          -15.55647     -4.083457     -3.784606
 90            120          -999          -999          -999     
 0             130          -6.371238     -7.894967     -4.056317
 10            130          -7.354114     -8.860658     -5.032084
 20            130          -9.243682     -10.90236     -6.984011
 30            130          -7.417161     -7.839274     -4.612791
 40            130          -4.180848     -2.406734     -.193522 
 50            130          -3.044597      1.224583      2.605023
 60            130          -4.619432      2.92427       3.628519
 70            130          -9.47768       2.439994      2.710647
 80            130          -16.36113     -1.61485      -1.471639
 90            130          -999          -999          -999     
 0             140          -7.894967     -6.371238     -4.056317
 10            140          -8.8695       -7.32858      -5.020754
 20            140          -10.73619     -9.347491     -6.976271
 30            140          -8.870085     -6.243396     -4.350812
 40            140          -5.581995     -.758185       .478113 
 50            140          -4.39178       2.928017      3.666527
 60            140          -5.917323      4.679391      5.042335
 70            140          -10.74062      4.237553      4.373433
 80            140          -17.60979      .210589       .28174  
 90            140          -999          -999          -999     
 0             150          -10.07692     -5.305705     -4.056317
 10            150          -11.04361     -6.255203     -5.010109
 20            150          -12.88884     -8.252724     -6.969166
 30            150          -10.98565     -5.110225     -4.111699
 40            150          -7.649233      .424135       1.053091
 50            150          -6.40884       4.161352      4.526428
 60            150          -7.888712      5.960581      6.135991
 70            150          -12.67969      5.557901      5.622583
 80            150          -19.53558      1.556594      1.590236
 90            150          -999          -999          -999     
 0             160          -13.37528     -4.596601     -4.056317
 10            160          -14.33559     -5.539707     -5.001432
 20            160          -16.16334     -7.519809     -6.963496
 30            160          -14.23001     -4.346095     -3.921486
 40            160          -10.85442      1.228085      1.488955
 50            160          -9.573499      5.006498      5.155203
 60            160          -11.01659      6.844243      6.91474 
 70            160          -15.78158      6.472986      6.498751
 80            160          -22.62675      2.492223      2.505565
 90            160          -999          -999          -999     
 0             170          -19.26291     -4.189288     -4.056317
 10            170          -20.21905     -5.128223     -4.99577 
 20            170          -22.0354      -7.096964     -6.959854
 30            170          -20.08244     -3.902921     -3.79949 
 40            170          -16.6814       1.697133      1.759765
 50            170          -15.3742       5.502247      5.537595
 60            170          -16.7935       7.364897      7.381536
 70            170          -21.54169      7.013916      7.019968
 80            170          -28.37991      3.046388      3.049514
 90            170          -999          -999          -999     
 0             180          -999          -4.056317     -4.056317
 10            180          -182.1463     -4.993803     -4.993803
 20            180          -176.2132     -6.958601     -6.958601
 30            180          -173.224      -3.757506     -3.757506
 40            180          -172.2134      1.851512      1.851512
 50            180          -173.26        5.665866      5.665866
 60            180          -174.9627      7.537123      7.537123
 70            180          -172.8827      7.193141      7.193141
 80            180          -172.355       3.230178      3.230178
 90            180          -999          -999          -999     
 0             190          -19.26291     -4.189288     -4.056317
 10            190          -20.21905     -5.128223     -4.99577 
 20            190          -22.0354      -7.096964     -6.959854
 30            190          -20.08244     -3.902921     -3.79949 
 40            190          -16.6814       1.697133      1.759765
 50            190          -15.3742       5.502247      5.537595
 60            190          -16.7935       7.364897      7.381536
 70            190          -21.54169      7.013916      7.019968
 80            190          -28.37991      3.046388      3.049514
 90            190          -999          -999          -999     
 0             200          -13.37528     -4.596601     -4.056317
 10            200          -14.33559     -5.539707     -5.001432
 20            200          -16.16334     -7.519809     -6.963496
 30            200          -14.23001     -4.346095     -3.921486
 40            200          -10.85442      1.228085      1.488955
 50            200          -9.573499      5.006498      5.155203
 60            200          -11.01659      6.844243      6.91474 
 70            200          -15.78158      6.472986      6.498751
 80            200          -22.62675      2.492223      2.505565
 90            200          -999          -999          -999     
 0             210          -10.07692     -5.305705     -4.056317
 10            210          -11.04361     -6.255203     -5.010109
 20            210          -12.88884     -8.252724     -6.969166
 30            210          -10.98565     -5.110225     -4.111699
 40            210          -7.649233      .424135       1.053091
 50            210          -6.40884       4.161352      4.526428
 60            210          -7.888712      5.960581      6.135991
 70            210          -12.67969      5.557901      5.622583
 80            210          -19.53558      1.556594      1.590236
 90            210          -999          -999          -999     
 0             220          -7.894967     -6.371238     -4.056317
 10            220          -8.8695       -7.32858      -5.020754
 20            220          -10.73619     -9.347491     -6.976271
 30            220          -8.870085     -6.243396     -4.350812
 40            220          -5.581995     -.758185       .478113 
 50            220          -4.39178       2.928017      3.666527
 60            220          -5.917323      4.679391      5.042335
 70            220          -10.74062      4.237553      4.373433
 80            220          -17.60979      .210589       .28174  
 90            220          -999          -999          -999     
 0             230          -6.371238     -7.894967     -4.056317
 10            230          -7.354114     -8.860658     -5.032084
 20            230          -9.243682     -10.90236     -6.984011
 30            230          -7.417161     -7.839274     -4.612791
 40            230          -4.180848     -2.406734     -.193522 
 50            230          -3.044597      1.224583      2.605023
 60            230          -4.619432      2.92427       3.628519
 70            230          -9.47768       2.439994      2.710647
 80            230          -16.36113     -1.61485      -1.471639
 90            230          -999          -999          -999     
 0             240          -5.305705     -10.07692     -4.056317
 10            240          -6.296422     -11.05046     -5.042734
 20            240          -8.207511     -13.1136      -6.991451
 30            240          -6.418315     -10.08918     -4.866623
 40            240          -3.230988     -4.706489     -.896075 
 50            240          -2.145992     -1.127321      1.403442
 60            240          -3.767814      .523061       1.897604
 70            240          -8.659443     -.001847       .552776 
 80            240          -15.55647     -4.083457     -3.784606
 90            240          -999          -999          -999     
 0             250          -4.596601     -13.37528     -4.056317
 10            250          -5.593713     -14.35522     -5.051416
 20            250          -7.522363     -16.43586     -6.997636
 30            250          -5.763685     -13.44306     -5.079478
 40            250          -2.616533     -8.101263     -1.534839
 50            250          -1.573719     -4.565028      .193533 
 60            250          -3.23434      -2.955387     -.082323 
 70            250          -8.153582     -3.513978     -2.231312
 80            250          -15.06179     -7.617832     -6.898506
 90            250          -999          -999          -999     
 0             260          -4.189288     -19.26291     -4.056317
 10            260          -5.190574     -20.24703     -5.057084
 20            260          -7.130697     -22.3391      -7.00173 
 30            260          -5.39198      -19.36698     -5.221478
 40            260          -2.27117      -14.052       -1.992125
 50            260          -1.256086     -10.54399     -.772377 
 60            260          -2.942275     -8.961216     -1.972843
 70            260          -7.87974      -9.542073     -5.621552
 80            260          -14.7953      -13.66066     -11.18073
 90            260          -999          -999          -999     
 0             270          -4.056317     -999          -4.056317
 10            270          -5.059053     -999          -5.059053
 20            270          -7.003162     -999          -7.003162
 30            270          -5.271386     -999          -5.271386
 40            270          -2.159746     -999          -2.159746
 50            270          -1.154329     -999          -1.154329
 60            270          -2.849444     -999          -2.849444
 70            270          -7.793276     -999          -7.793276
 80            270          -14.7114      -999          -14.7114 
 90            270          -999          -999          -999     
 0             280          -4.189288     -19.26291     -4.056317
 10            280          -5.190574     -20.24703     -5.057084
 20            280          -7.130697     -22.3391      -7.00173 
 30            280          -5.39198      -19.36698     -5.221478
 40            280          -2.27117      -14.052       -1.992125
 50            280          -1.256086     -10.54399     -.772377 
 60            280          -2.942275     -8.961216     -1.972843
 70            280          -7.87974      -9.542073     -5.621552
 80            280          -14.7953      -13.66066     -11.18073
 90            280          -999          -999          -999     
 0             290          -4.596601     -13.37528     -4.056317
 10            290          -5.593713     -14.35522     -5.051416
 20            290          -7.522363     -16.43586     -6.997636
 30            290          -5.763685     -13.44306     -5.079478
 40            290          -2.616533     -8.101263     -1.534839
 50            290          -1.573719     -4.565028      .193533 
 60            290          -3.23434      -2.955387     -.082323 
 70            290          -8.153582     -3.513978     -2.231312
 80            290          -15.06179     -7.617832     -6.898506
 90            290          -999          -999          -999     
 0             300          -5.305705     -10.07692     -4.056317
 10            300          -6.296422     -11.05046     -5.042734
 20            300          -8.207511     -13.1136      -6.991451
 30            300          -6.418315     -10.08918     -4.866623
 40            300          -3.230988     -4.706489     -.896075 
 50            300          -2.145992     -1.127321      1.403442
 60            300          -3.767814      .523061       1.897604
 70            300          -8.659443     -.001847       .552776 
 80            300          -15.55647     -4.083457     -3.784606
 90            300          -999          -999          -999     
 0             310          -6.371238     -7.894967     -4.056317
 10            310          -7.354114     -8.860658     -5.032084
 20            310          -9.243682     -10.90236     -6.984011
 30            310          -7.417161     -7.839274     -4.612791
 40            310          -4.180848     -2.406734     -.193522 
 50            310          -3.044597      1.224583      2.605023
 60            310          -4.619432      2.92427       3.628519
 70            310          -9.47768       2.439994      2.710647
 80            310          -16.36113     -1.61485      -1.471639
 90            310          -999          -999          -999     
 0             320          -7.894967     -6.371238     -4.056317
 10            320          -8.8695       -7.32858      -5.020754
 20            320          -10.73619     -9.347491     -6.976271
 30            320          -8.870085     -6.243396     -4.350812
 40            320          -5.581995     -.758185       .478113 
 50            320          -4.39178       2.928017      3.666527
 60            320          -5.917323      4.679391      5.042335
 70            320          -10.74062      4.237553      4.373433
 80            320          -17.60979      .210589       .28174  
 90            320          -999          -999          -999     
 0             330          -10.07692     -5.305705     -4.056317
 10            330          -11.04361     -6.255203     -5.010109
 20            330          -12.88884     -8.252724     -6.969166
 30            330          -10.98565     -5.110225     -4.111699
 40            330          -7.649233      .424135       1.053091
 50            330          -6.40884       4.161352      4.526428
 60            330          -7.888712      5.960581      6.135991
 70            330          -12.67969      5.557901      5.622583
 80            330          -19.53558      1.556594      1.590236
 90            330          -999          -999          -999     
 0             340          -13.37528     -4.596601     -4.056317
 10            340          -14.33559     -5.539707     -5.001432
 20            340          -16.16334     -7.519809     -6.963496
 30            340          -14.23001     -4.346095     -3.921486
 40            340          -10.85442      1.228085      1.488955
 50            340          -9.573499      5.006498      5.155203
 60            340          -11.01659      6.844243      6.91474 
 70            340          -15.78158      6.472986      6.498751
 80            340          -22.62675      2.492223      2.505565
 90            340          -999          -999          -999     
 0             350          -19.26291     -4.189288     -4.056317
 10            350          -20.21905     -5.128223     -4.99577 
 20            350          -22.0354      -7.096964     -6.959854
 30            350          -20.08244     -3.902921     -3.79949 
 40            350          -16.6814       1.697133      1.759765
 50            350          -15.3742       5.502247      5.537595
 60            350          -16.7935       7.364897      7.381536
 70            350          -21.54169      7.013916      7.019968
 80            350          -28.37991      3.046388      3.049514
 90            350          -999          -999          -999     
 0             360          -999          -4.056317     -4.056317
 10            360          -182.1463     -4.993803     -4.993803
 20            360          -176.2132     -6.958601     -6.958601
 30            360          -173.224      -3.757506     -3.757506
 40            360          -172.2134      1.851512      1.851512
 50            360          -173.26        5.665866      5.665866
 60            360          -174.9627      7.537123      7.537123
 70            360          -172.8827      7.193141      7.193141
 80            360          -172.355       3.230178      3.230178
 90            360          -999          -999          -999     