                   ****************************************
                     MINI-NUMERICAL ELECTROMAGNETICS CODE
                                   MININEC
                   ****************************************

FREQUENCY (MHZ): 14
    WAVE LENGTH =  21.41429  METERS

ENVIRONMENT (+1 FOR FREE SPACE, -1 FOR GROUND PLANE): -1
 NUMBER OF MEDIA (0 FOR PERFECTLY CONDUCTING GROUND):  1
 RELATIVE DIELECTRIC CONSTANT, CONDUCTIVITY:  13 , .005

NO. OF GEO-OBJECTS: 4

WIRE NO. 1
            COORDINATES                                 END         NO. OF
   X             Y             Z          RADIUS     CONNECTION     SEGMENTS
 3.017366      3.017366      10                         0
-3.017366     -3.017366      10            .000792      0             28

WIRE NO. 2
            COORDINATES                                 END         NO. OF
   X             Y             Z          RADIUS     CONNECTION     SEGMENTS
-3.017366     -3.017366      10                         1
-3.017366     -3.017366      12.4384       .000792      0              8

WIRE NO. 3
            COORDINATES                                 END         NO. OF
   X             Y             Z          RADIUS     CONNECTION     SEGMENTS
-3.017366     -3.017366      12.4384                    2
 3.017366      3.017366      12.4384       .000792      0             28

WIRE NO. 4
            COORDINATES                                 END         NO. OF
   X             Y             Z          RADIUS     CONNECTION     SEGMENTS
 3.017366      3.017366      12.4384                    3
 3.017366      3.017366      10            .000792      1              8

                  **** ANTENNA GEOMETRY ****

WIRE NO.  1 COORDINATES                                 CONNECTION PULSE
X             Y             Z             RADIUS        END1 END2  NO.
 2.80184       2.80184       10            .000792       0    1   1
 2.586314      2.586314      10            .000792       1    1   2
 2.370788      2.370788      10            .000792       1    1   3
 2.155261      2.155261      10            .000792       1    1   4
 1.939735      1.939735      10            .000792       1    1   5
 1.724209      1.724209      10            .000792       1    1   6
 1.508683      1.508683      10            .000792       1    1   7
 1.293157      1.293157      10            .000792       1    1   8
 1.077631      1.077631      10            .000792       1    1   9
 .862105       .862105       10            .000792       1    1  10
 .646578       .646578       10            .000792       1    1  11
 .431052       .431052       10            .000792       1    1  12
 .215526       .215526       10            .000792       1    1  13
 0             0             10            .000792       1    1  14
-.215526      -.215526       10            .000792       1    1  15
-.431052      -.431052       10            .000792       1    1  16
-.646578      -.646578       10            .000792       1    1  17
-.862105      -.862105       10            .000792       1    1  18
-1.077631     -1.077631      10            .000792       1    1  19
-1.293157     -1.293157      10            .000792       1    1  20
-1.508683     -1.508683      10            .000792       1    1  21
-1.724209     -1.724209      10            .000792       1    1  22
-1.939735     -1.939735      10            .000792       1    1  23
-2.155261     -2.155261      10            .000792       1    1  24
-2.370788     -2.370788      10            .000792       1    1  25
-2.586314     -2.586314      10            .000792       1    1  26
-2.80184      -2.80184       10            .000792       1    0  27

WIRE NO.  2 COORDINATES                                 CONNECTION PULSE
X             Y             Z             RADIUS        END1 END2  NO.
-3.017366     -3.017366      10            .000792       1    2  28
-3.017366     -3.017366      10.3048       .000792       2    2  29
-3.017366     -3.017366      10.6096       .000792       2    2  30
-3.017366     -3.017366      10.9144       .000792       2    2  31
-3.017366     -3.017366      11.2192       .000792       2    2  32
-3.017366     -3.017366      11.524        .000792       2    2  33
-3.017366     -3.017366      11.8288       .000792       2    2  34
-3.017366     -3.017366      12.1336       .000792       2    0  35

WIRE NO.  3 COORDINATES                                 CONNECTION PULSE
X             Y             Z             RADIUS        END1 END2  NO.
-3.017366     -3.017366      12.4384       .000792       2    3  36
-2.80184      -2.80184       12.4384       .000792       3    3  37
-2.586314     -2.586314      12.4384       .000792       3    3  38
-2.370788     -2.370788      12.4384       .000792       3    3  39
-2.155261     -2.155261      12.4384       .000792       3    3  40
-1.939735     -1.939735      12.4384       .000792       3    3  41
-1.724209     -1.724209      12.4384       .000792       3    3  42
-1.508683     -1.508683      12.4384       .000792       3    3  43
-1.293157     -1.293157      12.4384       .000792       3    3  44
-1.077631     -1.077631      12.4384       .000792       3    3  45
-.862105      -.862105       12.4384       .000792       3    3  46
-.646578      -.646578       12.4384       .000792       3    3  47
-.431052      -.431052       12.4384       .000792       3    3  48
-.215526      -.215526       12.4384       .000792       3    3  49
 0             0             12.4384       .000792       3    3  50
 .215526       .215526       12.4384       .000792       3    3  51
 .431052       .431052       12.4384       .000792       3    3  52
 .646578       .646578       12.4384       .000792       3    3  53
 .862105       .862105       12.4384       .000792       3    3  54
 1.077631      1.077631      12.4384       .000792       3    3  55
 1.293157      1.293157      12.4384       .000792       3    3  56
 1.508683      1.508683      12.4384       .000792       3    3  57
 1.724209      1.724209      12.4384       .000792       3    3  58
 1.939735      1.939735      12.4384       .000792       3    3  59
 2.155261      2.155261      12.4384       .000792       3    3  60
 2.370788      2.370788      12.4384       .000792       3    3  61
 2.586314      2.586314      12.4384       .000792       3    3  62
 2.80184       2.80184       12.4384       .000792       3    0  63

WIRE NO.  4 COORDINATES                                 CONNECTION PULSE
X             Y             Z             RADIUS        END1 END2  NO.
 3.017366      3.017366      12.4384       .000792       3    4  64
 3.017366      3.017366      12.1336       .000792       4    4  65
 3.017366      3.017366      11.8288       .000792       4    4  66
 3.017366      3.017366      11.524        .000792       4    4  67
 3.017366      3.017366      11.2192       .000792       4    4  68
 3.017366      3.017366      10.9144       .000792       4    4  69
 3.017366      3.017366      10.6096       .000792       4    4  70
 3.017366      3.017366      10.3048       .000792       4    4  71
 3.017366      3.017366      10            .000792       4    1  72

NO. OF SOURCES :  1
PULSE NO., VOLTAGE MAGNITUDE, PHASE (DEGREES): 14 , 1 , 0
NUMBER OF LOADS 0

********************    SOURCE DATA     ********************
PULSE 14      VOLTAGE = ( 1 , 0 J)
              CURRENT = ( 4.314881E-03 ,  4.712941E-04 J)
              IMPEDANCE = ( 229.0238 , -25.0152  J)
              POWER =  2.157440E-03  WATTS

********************    CURRENT DATA    ********************

WIRE NO.  1 :
PULSE         REAL          IMAGINARY     MAGNITUDE     PHASE
 NO.          (AMPS)        (AMPS)        (AMPS)        (DEGREES)
J              1.485011E-03 -4.560273E-04  1.553454E-03 -17.07103 
 1             1.832746E-03 -4.383167E-04  1.884430E-03 -13.45014 
 2             2.166345E-03 -4.125064E-04  2.205269E-03 -10.78096 
 3             2.483385E-03 -3.789691E-04  2.512135E-03 -8.676502 
 4             2.781419E-03 -3.379089E-04  2.801870E-03 -6.926802 
 5             3.058165E-03 -2.895260E-04  3.071840E-03 -5.408251 
 6             3.311535E-03 -2.340351E-04  3.319795E-03 -4.042526 
 7             3.539644E-03 -1.716621E-04  3.543804E-03 -2.776499 
 8             3.740808E-03 -1.026281E-04  3.742216E-03 -1.571501 
 9             3.913557E-03 -2.711878E-05  3.913651E-03 -.397022  
 10            4.056634E-03  5.477510E-05  4.057004E-03  .773595  
 11            4.169003E-03  1.431825E-04  4.171461E-03  1.967025 
 12            4.249851E-03  2.387679E-04  4.256553E-03  3.215648 
 13            4.298594E-03  3.438043E-04  4.312321E-03  4.57282  
 14            4.314881E-03  4.712941E-04  4.340543E-03  6.233439 
 15            4.298594E-03  3.438043E-04  4.312321E-03  4.572819 
 16            4.249852E-03  2.387678E-04  4.256554E-03  3.215646 
 17            4.169004E-03  1.431824E-04  4.171462E-03  1.967023 
 18            4.056636E-03  5.477497E-05  4.057006E-03  .773593  
 19            3.913559E-03 -2.711894E-05  3.913653E-03 -.397024  
 20            3.740810E-03 -1.026283E-04  3.742218E-03 -1.571503 
 21            3.539646E-03 -1.716624E-04  3.543806E-03 -2.7765   
 22            3.311539E-03 -2.340354E-04  3.319798E-03 -4.042526 
 23            3.058168E-03 -2.895262E-04  3.071843E-03 -5.408249 
 24            2.781422E-03 -3.379091E-04  2.801873E-03 -6.926799 
 25            2.483389E-03 -3.789694E-04  2.512138E-03 -8.676496 
 26            2.166349E-03 -4.125067E-04  2.205273E-03 -10.78095 
 27            1.832750E-03 -4.383170E-04  1.884435E-03 -13.45012 
J              1.485016E-03 -4.560276E-04  1.553458E-03 -17.07099 
WIRE NO.  2 :
PULSE         REAL          IMAGINARY     MAGNITUDE     PHASE
 NO.          (AMPS)        (AMPS)        (AMPS)        (DEGREES)
J              1.485016E-03 -4.560276E-04  1.553458E-03 -17.07099 
 29            1.131741E-03 -4.696100E-04  1.225304E-03 -22.53575 
 30            7.695001E-04 -4.798474E-04  9.068539E-04 -31.94698 
 31            4.013150E-04 -4.865639E-04  6.307125E-04 -50.48439 
 32            3.002186E-05 -4.896077E-04  4.905273E-04 -86.49112 
 33           -3.415488E-04 -4.888537E-04  5.963502E-04 -124.941  
 34           -7.105654E-04 -4.842037E-04  8.598583E-04 -145.7281 
 35           -1.074190E-03 -4.755760E-04  1.174758E-03 -156.1196 
J             -1.429413E-03 -4.627990E-04  1.502466E-03 -162.0597 
WIRE NO.  3 :
PULSE         REAL          IMAGINARY     MAGNITUDE     PHASE
 NO.          (AMPS)        (AMPS)        (AMPS)        (DEGREES)
J             -1.429413E-03 -4.627990E-04  1.502466E-03 -162.0597 
 37           -1.779052E-03 -4.499428E-04  1.835068E-03 -165.8069 
 38           -2.114419E-03 -4.371696E-04  2.159140E-03 -168.3183 
 39           -2.433102E-03 -4.245453E-04  2.469863E-03 -170.1023 
 40           -2.732654E-03 -4.121928E-04  2.763566E-03 -171.4222 
 41           -3.010792E-03 -4.002603E-04  3.037281E-03 -172.4274 
 42           -3.265424E-03 -3.889109E-04  3.288502E-03 -173.2081 
 43           -3.494659E-03 -3.783162E-04  3.515077E-03 -173.8215 
 44           -3.696812E-03 -3.686515E-04  3.715148E-03 -174.3052 
 45           -3.870405E-03 -3.600914E-04  3.887120E-03 -174.6847 
 46           -4.014180E-03 -3.528043E-04  4.029654E-03 -174.9772 
 47           -4.127094E-03 -3.469464E-04  4.141651E-03 -175.1947 
 48           -4.208333E-03 -3.426534E-04  4.222260E-03 -175.3451 
 49           -4.257312E-03 -3.400318E-04  4.270870E-03 -175.4335 
 50           -4.273678E-03 -3.391501E-04  4.287114E-03 -175.4626 
 51           -4.257313E-03 -3.400318E-04  4.270870E-03 -175.4335 
 52           -4.208334E-03 -3.426534E-04  4.222261E-03 -175.3451 
 53           -4.127095E-03 -3.469463E-04  4.141653E-03 -175.1947 
 54           -4.014181E-03 -3.528042E-04  4.029655E-03 -174.9772 
 55           -3.870407E-03 -3.600913E-04  3.887122E-03 -174.6847 
 56           -3.696814E-03 -3.686514E-04  3.715150E-03 -174.3052 
 57           -3.494662E-03 -3.783160E-04  3.515080E-03 -173.8215 
 58           -3.265427E-03 -3.889107E-04  3.288505E-03 -173.2081 
 59           -3.010795E-03 -4.002600E-04  3.037284E-03 -172.4274 
 60           -2.732657E-03 -4.121925E-04  2.763570E-03 -171.4222 
 61           -2.433105E-03 -4.245449E-04  2.469866E-03 -170.1023 
 62           -2.114423E-03 -4.371692E-04  2.159144E-03 -168.3184 
 63           -1.779056E-03 -4.499424E-04  1.835072E-03 -165.8069 
J             -1.429417E-03 -4.627986E-04  1.502470E-03 -162.0597 
WIRE NO.  4 :
PULSE         REAL          IMAGINARY     MAGNITUDE     PHASE
 NO.          (AMPS)        (AMPS)        (AMPS)        (DEGREES)
J             -1.429417E-03 -4.627986E-04  1.502470E-03 -162.0597 
 65           -1.074194E-03 -4.755757E-04  1.174762E-03 -156.1197 
 66           -7.105698E-04 -4.842034E-04  8.598618E-04 -145.7283 
 67           -3.415533E-04 -4.888533E-04  5.963524E-04 -124.9413 
 68            3.001739E-05 -4.896074E-04  4.905267E-04 -86.49164 
 69            4.013106E-04 -4.865636E-04  6.307094E-04 -50.48468 
 70            7.694957E-04 -4.798471E-04  9.068500E-04 -31.94711 
 71            1.131737E-03 -4.696096E-04  1.225300E-03 -22.53581 
J              1.485011E-03 -4.560273E-04  1.553454E-03 -17.07103 

********************     FAR FIELD      ********************

ZENITH ANGLE : INITIAL,INCREMENT,NUMBER: 0 , 10 , 10
AZIMUTH ANGLE: INITIAL,INCREMENT,NUMBER: 0 , 10 , 37

********************    PATTERN DATA    ********************
ZENITH        AZIMUTH       VERTICAL      HORIZONTAL    TOTAL
 ANGLE         ANGLE        PATTERN (DB)  PATTERN (DB)  PATTERN (DB)
 0             0            -7.066523     -7.066523     -4.056223
 10            0            -8.045231     -8.028046     -5.02633 
 20            0            -9.923442     -10.05844     -6.980116
 30            0            -8.077232     -6.974919     -4.480896
 40            0            -4.814962     -1.515943      .150847 
 50            0            -3.651619      2.142926      3.158188
 60            0            -5.20168       3.868573      4.375743
 70            0            -10.04234      3.405625      3.597647
 80            0            -16.91879     -.635198      -.534188 
 90            0            -999          -999          -999     
 0             10           -5.788932     -8.884397     -4.056223
 10            10           -6.775858     -9.854143     -5.03749 
 20            10           -8.676609     -11.90699     -6.987826
 30            10           -6.869451     -8.863929     -4.742888
 40            10           -3.658347     -3.457011     -.546213 
 50            10           -2.548437      .147503       2.01575 
 60            10           -4.147393      1.821859      2.801278
 70            10           -9.022755      1.316722      1.70086 
 80            10           -15.91335     -2.751856     -2.547045
 90            10           -999          -999          -999     
 0             20           -4.910708     -11.53726     -4.056223
 10            20           -5.904863     -12.51424     -5.047305
 20            20           -7.825458     -14.58686     -6.994753
 30            20           -6.052751     -11.57949     -4.980283
 40            20           -2.886936     -6.218661     -1.230544
 50            20           -1.824498     -2.662457      .787002 
 60            20           -3.467049     -1.033863      .928064 
 70            20           -8.373412     -1.576776     -.752184 
 80            20           -15.27658     -5.670272     -5.219043
 90            20           -999          -999          -999     
 0             30           -4.357347     -15.7963      -4.056223
 10            30           -5.356867     -16.77865     -5.054591
 20            30           -7.292206     -18.86596     -6.999982
 30            30           -5.545136     -15.88515     -5.161043
 40            30           -2.413115     -10.55872     -1.793829
 50            30           -1.386212     -7.038693     -.340949 
 60            30           -3.061492     -5.444476     -1.08125 
 70            30           -7.991166     -6.01585      -3.881858
 80            30           -14.90375     -10.12816     -8.879869
 90            30           -999          -999          -999     
 0             40           -4.089338     -25.2503      -4.056223
 10            40           -5.091714     -26.23551     -5.058468
 20            40           -7.034902     -28.33064     -7.002795
 30            40           -5.301496     -25.36399     -5.258897
 40            40           -2.18752      -20.05594     -2.117145
 50            40           -1.17963      -16.55526     -1.055466
 60            40           -2.872457     -14.97948     -2.613012
 70            40           -7.814643     -15.56615     -7.140876
 80            40           -14.73227     -19.68859     -13.52842
 90            40           -999          -999          -999     
 0             50           -4.089338     -25.2503      -4.056223
 10            50           -5.091714     -26.23551     -5.058468
 20            50           -7.034902     -28.33064     -7.002795
 30            50           -5.301496     -25.36399     -5.258897
 40            50           -2.18752      -20.05594     -2.117145
 50            50           -1.17963      -16.55526     -1.055466
 60            50           -2.872457     -14.97948     -2.613012
 70            50           -7.814643     -15.56615     -7.140876
 80            50           -14.73227     -19.68859     -13.52842
 90            50           -999          -999          -999     
 0             60           -4.357347     -15.7963      -4.056223
 10            60           -5.356867     -16.77865     -5.054591
 20            60           -7.292206     -18.86596     -6.999982
 30            60           -5.545136     -15.88515     -5.161043
 40            60           -2.413115     -10.55872     -1.793829
 50            60           -1.386212     -7.038693     -.340949 
 60            60           -3.061492     -5.444476     -1.08125 
 70            60           -7.991166     -6.01585      -3.881858
 80            60           -14.90375     -10.12816     -8.879869
 90            60           -999          -999          -999     
 0             70           -4.910708     -11.53726     -4.056223
 10            70           -5.904863     -12.51424     -5.047305
 20            70           -7.825458     -14.58686     -6.994753
 30            70           -6.052751     -11.57949     -4.980283
 40            70           -2.886936     -6.218661     -1.230544
 50            70           -1.824498     -2.662457      .787002 
 60            70           -3.467049     -1.033863      .928064 
 70            70           -8.373412     -1.576776     -.752184 
 80            70           -15.27658     -5.670272     -5.219043
 90            70           -999          -999          -999     
 0             80           -5.788932     -8.884397     -4.056223
 10            80           -6.775858     -9.854143     -5.03749 
 20            80           -8.676609     -11.90699     -6.987826
 30            80           -6.869451     -8.863929     -4.742888
 40            80           -3.658347     -3.457011     -.546213 
 50            80           -2.548437      .147503       2.01575 
 60            80           -4.147393      1.821859      2.801278
 70            80           -9.022755      1.316722      1.70086 
 80            80           -15.91335     -2.751856     -2.547045
 90            80           -999          -999          -999     
 0             90           -7.066523     -7.066523     -4.056223
 10            90           -8.045231     -8.028046     -5.02633 
 20            90           -9.923442     -10.05844     -6.980116
 30            90           -8.077232     -6.974919     -4.480896
 40            90           -4.814962     -1.515943      .150847 
 50            90           -3.651619      2.142926      3.158188
 60            90           -5.20168       3.868573      4.375743
 70            90           -10.04234      3.405625      3.597647
 80            90           -16.91879     -.635198      -.534188 
 90            90           -999          -999          -999     
 0             100          -8.884397     -5.788932     -4.056223
 10            100          -9.85489      -6.742235     -5.015173
 20            100          -11.71059     -8.750196     -6.972584
 30            100          -9.825457     -5.626362     -4.226726
 40            100          -6.512372     -.1157         .780746 
 50            100          -5.296169      3.59692       4.123976
 60            100          -6.798034      5.373085      5.628839
 70            100          -11.60455      4.951544      5.046478
 80            100          -18.46701      .937886       .98741  
 90            100          -999          -999          -999     
 0             110          -11.53726     -4.910708     -4.056223
 10            110          -12.50053     -5.856783     -5.005364
 20            110          -14.33645     -7.845043     -6.966109
 30            110          -12.4172      -4.685871     -4.009198
 40            110          -9.059716      .86994        1.29031 
 50            110          -7.797492      4.629342      4.870871
 60            110          -9.257535      6.449315      6.564482
 70            110          -14.03448      6.063563      6.105817
 80            110          -20.88476      2.073328      2.09525 
 90            110          -999          -999          -999     
 0             120          -15.7963      -4.357347     -4.056223
 10            120          -16.75421     -5.298059     -4.998084
 20            120          -18.57547     -7.271708     -6.961395
 30            120          -16.63096     -4.086377     -3.851137
 40            120          -13.24069      1.502765      1.646068
 50            120          -11.94458      5.296601      5.377809
 60            120          -13.37391      7.148725      7.18706 
 70            120          -18.12917      6.789173      6.803145
 80            120          -24.97048      2.816052      2.823276
 90            120          -999          -999          -999     
 0             130          -25.2503      -4.089338     -4.056223
 10            130          -26.20535     -5.027196     -4.994211
 20            130          -28.0188      -6.993076     -6.958918
 30            130          -26.06087     -3.79385      -3.768158
 40            130          -22.65323      1.812964      1.828466
 50            130          -21.33919      5.625023      5.633751
 60            130          -22.75229      7.494131      7.498233
 70            130          -27.49608      7.148397      7.149888
 80            130          -34.33262      3.184291      3.18506 
 90            130          -999          -999          -999     
 0             140          -25.2503      -4.089338     -4.056223
 10            140          -26.20537     -5.027196     -4.994211
 20            140          -28.01886     -6.993076     -6.958918
 30            140          -26.06093     -3.79385      -3.768158
 40            140          -22.65326      1.812964      1.828466
 50            140          -21.33922      5.625023      5.633751
 60            140          -22.75232      7.494131      7.498233
 70            140          -27.49616      7.148397      7.149888
 80            140          -34.33281      3.184291      3.18506 
 90            140          -999          -999          -999     
 0             150          -15.7963      -4.357347     -4.056223
 10            150          -16.75421     -5.298058     -4.998084
 20            150          -18.57549     -7.271707     -6.961395
 30            150          -16.63097     -4.086376     -3.851137
 40            150          -13.2407       1.502765      1.646067
 50            150          -11.94459      5.296601      5.377809
 60            150          -13.37392      7.148725      7.18706 
 70            150          -18.12919      6.789173      6.803145
 80            150          -24.97055      2.816052      2.823276
 90            150          -999          -999          -999     
 0             160          -11.53726     -4.910708     -4.056223
 10            160          -12.50053     -5.856783     -5.005364
 20            160          -14.33646     -7.845041     -6.96611 
 30            160          -12.41721     -4.68587      -4.009199
 40            160          -9.059722      .869941       1.290309
 50            160          -7.797497      4.629343      4.870871
 60            160          -9.257542      6.449315      6.564482
 70            160          -14.0345       6.063563      6.105817
 80            160          -20.8848       2.073328      2.09525 
 90            160          -999          -999          -999     
 0             170          -8.884397     -5.788932     -4.056223
 10            170          -9.854892     -6.742234     -5.015174
 20            170          -11.7106      -8.750195     -6.972585
 30            170          -9.825464     -5.626361     -4.226727
 40            170          -6.512376     -.1157         .780745 
 50            170          -5.296173      3.596921      4.123975
 60            170          -6.798039      5.373085      5.628839
 70            170          -11.60456      4.951544      5.046477
 80            170          -18.46703      .937886       .98741  
 90            170          -999          -999          -999     
 0             180          -7.066523     -7.066523     -4.056223
 10            180          -8.045233     -8.028046     -5.026331
 20            180          -9.923447     -10.05844     -6.980117
 30            180          -8.077237     -6.974917     -4.480897
 40            180          -4.814965     -1.515943      .150846 
 50            180          -3.651622      2.142926      3.158188
 60            180          -5.201683      3.868573      4.375743
 70            180          -10.04235      3.405625      3.597647
 80            180          -16.9188      -.635198      -.534188 
 90            180          -999          -999          -999     
 0             190          -5.788932     -8.884397     -4.056223
 10            190          -6.77586      -9.854143     -5.03749 
 20            190          -8.676613     -11.90699     -6.987828
 30            190          -6.869455     -8.863928     -4.74289 
 40            190          -3.65835      -3.457011     -.546214 
 50            190          -2.548439      .147503       2.01575 
 60            190          -4.147395      1.821859      2.801277
 70            190          -9.022761      1.316722      1.70086 
 80            190          -15.91336     -2.751856     -2.547046
 90            190          -999          -999          -999     
 0             200          -4.910708     -11.53726     -4.056223
 10            200          -5.904864     -12.51424     -5.047305
 20            200          -7.825461     -14.58686     -6.994755
 30            200          -6.052754     -11.57949     -4.980285
 40            200          -2.886937     -6.21866      -1.230545
 50            200          -1.824499     -2.662456      .787001 
 60            200          -3.467051     -1.033862      .928063 
 70            200          -8.373416     -1.576776     -.752185 
 80            200          -15.27659     -5.670272     -5.219044
 90            200          -999          -999          -999     
 0             210          -4.357347     -15.7963      -4.056223
 10            210          -5.356868     -16.77865     -5.054591
 20            210          -7.292209     -18.86596     -6.999984
 30            210          -5.545138     -15.88515     -5.161045
 40            210          -2.413117     -10.55872     -1.79383 
 50            210          -1.386213     -7.038693     -.34095  
 60            210          -3.061493     -5.444476     -1.081251
 70            210          -7.99117      -6.01585      -3.88186 
 80            210          -14.90376     -10.12816     -8.879871
 90            210          -999          -999          -999     
 0             220          -4.089338     -25.2503      -4.056223
 10            220          -5.091715     -26.23551     -5.058469
 20            220          -7.034905     -28.33064     -7.002797
 30            220          -5.301498     -25.36399     -5.258899
 40            220          -2.187522     -20.05594     -2.117147
 50            220          -1.179631     -16.55526     -1.055467
 60            220          -2.872458     -14.97948     -2.613013
 70            220          -7.814646     -15.56615     -7.140879
 80            220          -14.73228     -19.68859     -13.52843
 90            220          -999          -999          -999     
 0             230          -4.089338     -25.2503      -4.056223
 10            230          -5.091715     -26.23551     -5.058469
 20            230          -7.034905     -28.33064     -7.002797
 30            230          -5.301498     -25.36399     -5.258899
 40            230          -2.187522     -20.05594     -2.117147
 50            230          -1.179631     -16.55526     -1.055467
 60            230          -2.872458     -14.97948     -2.613013
 70            230          -7.814646     -15.56615     -7.140879
 80            230          -14.73228     -19.68859     -13.52843
 90            230          -999          -999          -999     
 0             240          -4.357347     -15.7963      -4.056223
 10            240          -5.356868     -16.77865     -5.054591
 20            240          -7.292209     -18.86596     -6.999984
 30            240          -5.545138     -15.88515     -5.161045
 40            240          -2.413117     -10.55872     -1.79383 
 50            240          -1.386213     -7.038693     -.34095  
 60            240          -3.061493     -5.444476     -1.081251
 70            240          -7.99117      -6.01585      -3.88186 
 80            240          -14.90376     -10.12816     -8.879871
 90            240          -999          -999          -999     
 0             250          -4.910708     -11.53726     -4.056223
 10            250          -5.904864     -12.51424     -5.047305
 20            250          -7.825461     -14.58686     -6.994755
 30            250          -6.052754     -11.57949     -4.980285
 40            250          -2.886937     -6.21866      -1.230545
 50            250          -1.824499     -2.662456      .787001 
 60            250          -3.467051     -1.033862      .928063 
 70            250          -8.373416     -1.576776     -.752185 
 80            250          -15.27659     -5.670272     -5.219044
 90            250          -999          -999          -999     
 0             260          -5.788932     -8.884397     -4.056223
 10            260          -6.77586      -9.854143     -5.03749 
 20            260          -8.676613     -11.90699     -6.987828
 30            260          -6.869455     -8.863928     -4.74289 
 40            260          -3.65835      -3.457011     -.546214 
 50            260          -2.548439      .147503       2.01575 
 60            260          -4.147395      1.821859      2.801277
 70            260          -9.022761      1.316722      1.70086 
 80            260          -15.91336     -2.751856     -2.547046
 90            260          -999          -999          -999     
 0             270          -7.066523     -7.066523     -4.056223
 10            270          -8.045233     -8.028046     -5.026331
 20            270          -9.923447     -10.05844     -6.980117
 30            270          -8.077237     -6.974917     -4.480897
 40            270          -4.814965     -1.515943      .150846 
 50            270          -3.651622      2.142926      3.158188
 60            270          -5.201683      3.868573      4.375743
 70            270          -10.04235      3.405625      3.597647
 80            270          -16.9188      -.635198      -.534188 
 90            270          -999          -999          -999     
 0             280          -8.884397     -5.788932     -4.056223
 10            280          -9.854892     -6.742234     -5.015174
 20            280          -11.7106      -8.750195     -6.972585
 30            280          -9.825464     -5.626361     -4.226727
 40            280          -6.512376     -.1157         .780745 
 50            280          -5.296173      3.596921      4.123975
 60            280          -6.798039      5.373085      5.628839
 70            280          -11.60456      4.951544      5.046477
 80            280          -18.46703      .937886       .98741  
 90            280          -999          -999          -999     
 0             290          -11.53726     -4.910708     -4.056223
 10            290          -12.50053     -5.856783     -5.005364
 20            290          -14.33646     -7.845041     -6.96611 
 30            290          -12.41721     -4.68587      -4.009199
 40            290          -9.059722      .869941       1.290309
 50            290          -7.797497      4.629343      4.870871
 60            290          -9.257542      6.449315      6.564482
 70            290          -14.0345       6.063563      6.105817
 80            290          -20.8848       2.073328      2.09525 
 90            290          -999          -999          -999     
 0             300          -15.7963      -4.357347     -4.056223
 10            300          -16.75421     -5.298058     -4.998084
 20            300          -18.57549     -7.271707     -6.961395
 30            300          -16.63097     -4.086376     -3.851137
 40            300          -13.2407       1.502765      1.646067
 50            300          -11.94459      5.296601      5.377809
 60            300          -13.37392      7.148725      7.18706 
 70            300          -18.12919      6.789173      6.803145
 80            300          -24.97055      2.816052      2.823276
 90            300          -999          -999          -999     
 0             310          -25.2503      -4.089338     -4.056223
 10            310          -26.20537     -5.027196     -4.994211
 20            310          -28.01886     -6.993076     -6.958918
 30            310          -26.06093     -3.79385      -3.768158
 40            310          -22.65326      1.812964      1.828466
 50            310          -21.33922      5.625023      5.633751
 60            310          -22.75232      7.494131      7.498233
 70            310          -27.49616      7.148397      7.149888
 80            310          -34.33281      3.184291      3.18506 
 90            310          -999          -999          -999     
 0             320          -25.2503      -4.089338     -4.056223
 10            320          -26.20535     -5.027196     -4.994211
 20            320          -28.0188      -6.993076     -6.958918
 30            320          -26.06087     -3.79385      -3.768158
 40            320          -22.65323      1.812964      1.828466
 50            320          -21.33919      5.625023      5.633751
 60            320          -22.75229      7.494131      7.498233
 70            320          -27.49608      7.148397      7.149888
 80            320          -34.33262      3.184291      3.18506 
 90            320          -999          -999          -999     
 0             330          -15.7963      -4.357347     -4.056223
 10            330          -16.75421     -5.298059     -4.998084
 20            330          -18.57547     -7.271708     -6.961395
 30            330          -16.63096     -4.086377     -3.851137
 40            330          -13.24069      1.502765      1.646068
 50            330          -11.94458      5.296601      5.377809
 60            330          -13.37391      7.148725      7.18706 
 70            330          -18.12917      6.789173      6.803145
 80            330          -24.97048      2.816052      2.823276
 90            330          -999          -999          -999     
 0             340          -11.53726     -4.910708     -4.056223
 10            340          -12.50053     -5.856783     -5.005364
 20            340          -14.33645     -7.845043     -6.966109
 30            340          -12.4172      -4.685871     -4.009198
 40            340          -9.059716      .86994        1.29031 
 50            340          -7.797492      4.629342      4.870871
 60            340          -9.257535      6.449315      6.564482
 70            340          -14.03448      6.063563      6.105817
 80            340          -20.88476      2.073328      2.09525 
 90            340          -999          -999          -999     
 0             350          -8.884397     -5.788932     -4.056223
 10            350          -9.85489      -6.742235     -5.015173
 20            350          -11.71059     -8.750196     -6.972584
 30            350          -9.825457     -5.626362     -4.226726
 40            350          -6.512372     -.1157         .780746 
 50            350          -5.296169      3.59692       4.123976
 60            350          -6.798034      5.373085      5.628839
 70            350          -11.60455      4.951544      5.046478
 80            350          -18.46701      .937886       .98741  
 90            350          -999          -999          -999     
 0             360          -7.066523     -7.066523     -4.056223
 10            360          -8.045231     -8.028046     -5.02633 
 20            360          -9.923442     -10.05844     -6.980116
 30            360          -8.077232     -6.974919     -4.480896
 40            360          -4.814962     -1.515943      .150847 
 50            360          -3.651619      2.142926      3.158188
 60            360          -5.20168       3.868573      4.375743
 70            360          -10.04234      3.405625      3.597647
 80            360          -16.91879     -.635198      -.534188 
 90            360          -999          -999          -999     