                   ****************************************
                     MINI-NUMERICAL ELECTROMAGNETICS CODE
                                   MININEC
                   ****************************************

FREQUENCY (MHZ): 14.05
    WAVE LENGTH =  21.33808  METERS

ENVIRONMENT (+1 FOR FREE SPACE, -1 FOR GROUND PLANE): -1
 NUMBER OF MEDIA (0 FOR PERFECTLY CONDUCTING GROUND):  2
 TYPE OF BOUNDARY (1-LINEAR, 2-CIRCULAR):  2
 RELATIVE DIELECTRIC CONSTANT, CONDUCTIVITY:  20 , .0303
 NUMBER OF RADIAL WIRES IN GROUND SCREEN:  16
 RADIUS OF RADIAL WIRES:  .001
 X OR R COORDINATE OF NEXT MEDIA INTERFACE:  5.05968
 RELATIVE DIELECTRIC CONSTANT, CONDUCTIVITY:  20 , .0303
 HEIGHT OF MEDIA: 0

NO. OF WIRES: 2

WIRE NO. 1
            COORDINATES                                 END         NO. OF
   X             Y             Z          RADIUS     CONNECTION     SEGMENTS
 0             0             0                         -1
 0             0             5.35          .0015        0             32

WIRE NO. 2
            COORDINATES                                 END         NO. OF
   X             Y             Z          RADIUS     CONNECTION     SEGMENTS
 0             0             5.35                       1
 0             0             6.864         .0015        0              8

                  **** ANTENNA GEOMETRY ****

WIRE NO.  1  COORDINATES                                CONNECTION PULSE
X             Y             Z             RADIUS        END1 END2  NO.
 0             0             0             .0015        -1    1   1
 0             0             .167187       .0015         1    1   2
 0             0             .334375       .0015         1    1   3
 0             0             .501562       .0015         1    1   4
 0             0             .66875        .0015         1    1   5
 0             0             .835938       .0015         1    1   6
 0             0             1.003125      .0015         1    1   7
 0             0             1.170312      .0015         1    1   8
 0             0             1.3375        .0015         1    1   9
 0             0             1.504687      .0015         1    1  10
 0             0             1.671875      .0015         1    1  11
 0             0             1.839062      .0015         1    1  12
 0             0             2.00625       .0015         1    1  13
 0             0             2.173437      .0015         1    1  14
 0             0             2.340625      .0015         1    1  15
 0             0             2.507812      .0015         1    1  16
 0             0             2.675         .0015         1    1  17
 0             0             2.842187      .0015         1    1  18
 0             0             3.009375      .0015         1    1  19
 0             0             3.176562      .0015         1    1  20
 0             0             3.34375       .0015         1    1  21
 0             0             3.510937      .0015         1    1  22
 0             0             3.678125      .0015         1    1  23
 0             0             3.845312      .0015         1    1  24
 0             0             4.0125        .0015         1    1  25
 0             0             4.179688      .0015         1    1  26
 0             0             4.346875      .0015         1    1  27
 0             0             4.514062      .0015         1    1  28
 0             0             4.68125       .0015         1    1  29
 0             0             4.848437      .0015         1    1  30
 0             0             5.015625      .0015         1    1  31
 0             0             5.182812      .0015         1    0  32

WIRE NO.  2  COORDINATES                                CONNECTION PULSE
X             Y             Z             RADIUS        END1 END2  NO.
 0             0             5.35          .0015         1    2  33
 0             0             5.53925       .0015         2    2  34
 0             0             5.7285        .0015         2    2  35
 0             0             5.91775       .0015         2    2  36
 0             0             6.107         .0015         2    2  37
 0             0             6.29625       .0015         2    2  38
 0             0             6.4855        .0015         2    2  39
 0             0             6.67475       .0015         2    0  40

NO. OF SOURCES :  1
PULSE NO., VOLTAGE MAGNITUDE, PHASE (DEGREES):  1 , 1 , 0
NUMBER OF LOADS 1
PULSE NO., ORDER OF S-PARAMETER FUNCTION:  32 , 2
NUMERATOR, DENOMINATOR COEFFICIENTS OF S^ 1 : 1 , 1
NUMERATOR, DENOMINATOR COEFFICIENTS OF S^ 2 : 1.457 , 8.8e-05
NUMERATOR, DENOMINATOR COEFFICIENTS OF S^ 3 : 0 , 0.000128216

********************    SOURCE DATA     ********************
PULSE  1      VOLTAGE = ( 1 , 0 J)
              CURRENT = ( 2.103103E-02 ,  1.935477E-04 J)
              IMPEDANCE = ( 47.54476 , -.437552  J)
              POWER =  1.051552E-02  WATTS

********************    CURRENT DATA    ********************

WIRE NO.  1 :
PULSE         REAL          IMAGINARY     MAGNITUDE     PHASE
 NO.          (AMPS)        (AMPS)        (AMPS)        (DEGREES)
 1             2.103103E-02  1.935477E-04  2.103192E-02  .527276  
 2             2.100573E-02  1.576376E-05  2.100574E-02  4.299764E-02 
 3             2.092989E-02 -1.215076E-04  2.093025E-02 -.332624  
 4             2.080367E-02 -2.429814E-04  2.080509E-02 -.669169  
 5             2.062734E-02 -3.532751E-04  2.063037E-02 -.981183  
 6             2.040128E-02 -4.542687E-04  2.040634E-02 -1.275576 
 7             2.012597E-02 -5.468994E-04  2.013340E-02 -1.556562 
 8             1.980200E-02 -6.316854E-04  1.981207E-02 -1.827121 
 9             1.943006E-02 -7.089297E-04  1.944298E-02 -2.089581 
 10            1.901093E-02 -7.788145E-04  1.902687E-02 -2.345906 
 11            1.854549E-02 -8.414515E-04  1.856457E-02 -2.597859 
 12            1.803473E-02 -8.969099E-04  1.805702E-02 -2.84711  
 13            1.747969E-02 -9.452339E-04  1.750523E-02 -3.095319 
 14            1.688153E-02 -9.864536E-04  1.691032E-02 -3.344214 
 15            1.624145E-02 -1.020593E-03  1.627348E-02 -3.595668 
 16            1.556074E-02 -1.047673E-03  1.559597E-02 -3.851793 
 17            1.484075E-02 -1.067717E-03  1.487911E-02 -4.115052 
 18            1.408288E-02 -1.080755E-03  1.412429E-02 -4.388418 
 19            1.328854E-02 -1.086818E-03  1.333291E-02 -4.675591 
 20            1.245921E-02 -1.085947E-03  1.250644E-02 -4.981323 
 21            1.159632E-02 -1.078188E-03  1.164633E-02 -5.311903 
 22            1.070130E-02 -1.063593E-03  1.075402E-02 -5.675938 
 23            9.775511E-03 -1.042220E-03  9.830913E-03 -6.085623 
 24            8.820194E-03 -1.014129E-03  8.878304E-03 -6.558958 
 25            7.836384E-03 -9.793806E-04  7.897348E-03 -7.123811 
 26            6.824784E-03 -9.380273E-04  6.888946E-03 -7.825941 
 27            5.785533E-03 -8.901048E-04  5.853604E-03 -8.746383 
 28            4.717776E-03 -8.356116E-04  4.791207E-03 -10.04405 
 29            3.618743E-03 -7.744652E-04  3.700689E-03 -12.07993 
 30            2.481384E-03 -7.063935E-04  2.579973E-03 -15.89044 
 31            1.286290E-03 -6.305613E-04  1.432533E-03 -26.11488 
 32           -7.648101E-05 -5.419724E-04  5.473421E-04 -98.03232 
J              1.780551E-04 -5.228460E-04  5.523328E-04 -71.19374 
WIRE NO.  2 :
PULSE         REAL          IMAGINARY     MAGNITUDE     PHASE
 NO.          (AMPS)        (AMPS)        (AMPS)        (DEGREES)
J              1.780551E-04 -5.228460E-04  5.523328E-04 -71.19374 
 34            2.739585E-04 -4.864022E-04  5.582476E-04 -60.61029 
 35            3.069009E-04 -4.408234E-04  5.371345E-04 -55.1544  
 36            3.042435E-04 -3.874287E-04  4.926105E-04 -51.85785 
 37            2.771401E-04 -3.267227E-04  4.284325E-04 -49.69397 
 38            2.314076E-04 -2.588415E-04  3.472008E-04 -48.20288 
 39            1.702691E-04 -1.835217E-04  2.503433E-04 -47.14523 
 40            9.490651E-05 -9.959942E-05  1.375765E-04 -46.38213 
E              0             0             0             0

********************     FAR FIELD      ********************

ZENITH ANGLE : INITIAL,INCREMENT,NUMBER: 0 , 10 , 10
AZIMUTH ANGLE: INITIAL,INCREMENT,NUMBER: 0 , 10 , 37

********************    PATTERN DATA    ********************
ZENITH        AZIMUTH       VERTICAL      HORIZONTAL    TOTAL
 ANGLE         ANGLE        PATTERN (DB)  PATTERN (DB)  PATTERN (DB)
 0             0            -999          -999          -999     
 10            0            -13.40502     -999          -13.40502
 20            0            -7.520503     -999          -7.520503
 30            0            -4.124111     -999          -4.124111
 40            0            -1.80167      -999          -1.80167 
 50            0            -.183404      -999          -.183404 
 60            0             .757538      -999           .757538 
 70            0             .848963      -999           .848963 
 80            0            -.899705      -999          -.899705 
 90            0            -28.15831     -999          -28.15831
 0             10           -999          -999          -999     
 10            10           -13.40502     -999          -13.40502
 20            10           -7.520503     -999          -7.520503
 30            10           -4.124111     -999          -4.124111
 40            10           -1.80167      -999          -1.80167 
 50            10           -.183404      -999          -.183404 
 60            10            .757538      -999           .757538 
 70            10            .848963      -999           .848963 
 80            10           -.899705      -999          -.899705 
 90            10           -28.15831     -999          -28.15831
 0             20           -999          -999          -999     
 10            20           -13.40502     -999          -13.40502
 20            20           -7.520503     -999          -7.520503
 30            20           -4.124111     -999          -4.124111
 40            20           -1.80167      -999          -1.80167 
 50            20           -.183404      -999          -.183404 
 60            20            .757538      -999           .757538 
 70            20            .848963      -999           .848963 
 80            20           -.899705      -999          -.899705 
 90            20           -28.15831     -999          -28.15831
 0             30           -999          -999          -999     
 10            30           -13.40502     -999          -13.40502
 20            30           -7.520503     -999          -7.520503
 30            30           -4.124111     -999          -4.124111
 40            30           -1.80167      -999          -1.80167 
 50            30           -.183404      -999          -.183404 
 60            30            .757538      -999           .757538 
 70            30            .848963      -999           .848963 
 80            30           -.899705      -999          -.899705 
 90            30           -28.15831     -999          -28.15831
 0             40           -999          -999          -999     
 10            40           -13.40502     -999          -13.40502
 20            40           -7.520503     -999          -7.520503
 30            40           -4.124111     -999          -4.124111
 40            40           -1.80167      -999          -1.80167 
 50            40           -.183404      -999          -.183404 
 60            40            .757538      -999           .757538 
 70            40            .848963      -999           .848963 
 80            40           -.899705      -999          -.899705 
 90            40           -28.15831     -999          -28.15831
 0             50           -999          -999          -999     
 10            50           -13.40502     -999          -13.40502
 20            50           -7.520503     -999          -7.520503
 30            50           -4.124111     -999          -4.124111
 40            50           -1.80167      -999          -1.80167 
 50            50           -.183404      -999          -.183404 
 60            50            .757538      -999           .757538 
 70            50            .848963      -999           .848963 
 80            50           -.899705      -999          -.899705 
 90            50           -28.15831     -999          -28.15831
 0             60           -999          -999          -999     
 10            60           -13.40502     -999          -13.40502
 20            60           -7.520503     -999          -7.520503
 30            60           -4.124111     -999          -4.124111
 40            60           -1.80167      -999          -1.80167 
 50            60           -.183404      -999          -.183404 
 60            60            .757538      -999           .757538 
 70            60            .848963      -999           .848963 
 80            60           -.899705      -999          -.899705 
 90            60           -28.15831     -999          -28.15831
 0             70           -999          -999          -999     
 10            70           -13.40502     -999          -13.40502
 20            70           -7.520503     -999          -7.520503
 30            70           -4.124111     -999          -4.124111
 40            70           -1.80167      -999          -1.80167 
 50            70           -.183404      -999          -.183404 
 60            70            .757538      -999           .757538 
 70            70            .848963      -999           .848963 
 80            70           -.899705      -999          -.899705 
 90            70           -28.15831     -999          -28.15831
 0             80           -999          -999          -999     
 10            80           -13.40502     -999          -13.40502
 20            80           -7.520503     -999          -7.520503
 30            80           -4.124111     -999          -4.124111
 40            80           -1.80167      -999          -1.80167 
 50            80           -.183404      -999          -.183404 
 60            80            .757538      -999           .757538 
 70            80            .848963      -999           .848963 
 80            80           -.899705      -999          -.899705 
 90            80           -28.15831     -999          -28.15831
 0             90           -999          -999          -999     
 10            90           -13.40502     -999          -13.40502
 20            90           -7.520503     -999          -7.520503
 30            90           -4.124111     -999          -4.124111
 40            90           -1.80167      -999          -1.80167 
 50            90           -.183404      -999          -.183404 
 60            90            .757538      -999           .757538 
 70            90            .848963      -999           .848963 
 80            90           -.899705      -999          -.899705 
 90            90           -28.15831     -999          -28.15831
 0             100          -999          -999          -999     
 10            100          -13.40502     -999          -13.40502
 20            100          -7.520503     -999          -7.520503
 30            100          -4.124111     -999          -4.124111
 40            100          -1.80167      -999          -1.80167 
 50            100          -.183404      -999          -.183404 
 60            100           .757538      -999           .757538 
 70            100           .848963      -999           .848963 
 80            100          -.899705      -999          -.899705 
 90            100          -28.15831     -999          -28.15831
 0             110          -999          -999          -999     
 10            110          -13.40502     -999          -13.40502
 20            110          -7.520503     -999          -7.520503
 30            110          -4.124111     -999          -4.124111
 40            110          -1.80167      -999          -1.80167 
 50            110          -.183404      -999          -.183404 
 60            110           .757538      -999           .757538 
 70            110           .848963      -999           .848963 
 80            110          -.899705      -999          -.899705 
 90            110          -28.15831     -999          -28.15831
 0             120          -999          -999          -999     
 10            120          -13.40502     -999          -13.40502
 20            120          -7.520503     -999          -7.520503
 30            120          -4.124111     -999          -4.124111
 40            120          -1.80167      -999          -1.80167 
 50            120          -.183404      -999          -.183404 
 60            120           .757538      -999           .757538 
 70            120           .848963      -999           .848963 
 80            120          -.899705      -999          -.899705 
 90            120          -28.15831     -999          -28.15831
 0             130          -999          -999          -999     
 10            130          -13.40502     -999          -13.40502
 20            130          -7.520503     -999          -7.520503
 30            130          -4.124111     -999          -4.124111
 40            130          -1.80167      -999          -1.80167 
 50            130          -.183404      -999          -.183404 
 60            130           .757538      -999           .757538 
 70            130           .848963      -999           .848963 
 80            130          -.899705      -999          -.899705 
 90            130          -28.15831     -999          -28.15831
 0             140          -999          -999          -999     
 10            140          -13.40502     -999          -13.40502
 20            140          -7.520503     -999          -7.520503
 30            140          -4.124111     -999          -4.124111
 40            140          -1.80167      -999          -1.80167 
 50            140          -.183404      -999          -.183404 
 60            140           .757538      -999           .757538 
 70            140           .848963      -999           .848963 
 80            140          -.899705      -999          -.899705 
 90            140          -28.15831     -999          -28.15831
 0             150          -999          -999          -999     
 10            150          -13.40502     -999          -13.40502
 20            150          -7.520503     -999          -7.520503
 30            150          -4.124111     -999          -4.124111
 40            150          -1.80167      -999          -1.80167 
 50            150          -.183404      -999          -.183404 
 60            150           .757538      -999           .757538 
 70            150           .848963      -999           .848963 
 80            150          -.899705      -999          -.899705 
 90            150          -28.15831     -999          -28.15831
 0             160          -999          -999          -999     
 10            160          -13.40502     -999          -13.40502
 20            160          -7.520503     -999          -7.520503
 30            160          -4.124111     -999          -4.124111
 40            160          -1.80167      -999          -1.80167 
 50            160          -.183404      -999          -.183404 
 60            160           .757538      -999           .757538 
 70            160           .848963      -999           .848963 
 80            160          -.899705      -999          -.899705 
 90            160          -28.15831     -999          -28.15831
 0             170          -999          -999          -999     
 10            170          -13.40502     -999          -13.40502
 20            170          -7.520503     -999          -7.520503
 30            170          -4.124111     -999          -4.124111
 40            170          -1.80167      -999          -1.80167 
 50            170          -.183404      -999          -.183404 
 60            170           .757538      -999           .757538 
 70            170           .848963      -999           .848963 
 80            170          -.899705      -999          -.899705 
 90            170          -28.15831     -999          -28.15831
 0             180          -999          -999          -999     
 10            180          -13.40502     -999          -13.40502
 20            180          -7.520503     -999          -7.520503
 30            180          -4.124111     -999          -4.124111
 40            180          -1.80167      -999          -1.80167 
 50            180          -.183404      -999          -.183404 
 60            180           .757538      -999           .757538 
 70            180           .848963      -999           .848963 
 80            180          -.899705      -999          -.899705 
 90            180          -28.15831     -999          -28.15831
 0             190          -999          -999          -999     
 10            190          -13.40502     -999          -13.40502
 20            190          -7.520503     -999          -7.520503
 30            190          -4.124111     -999          -4.124111
 40            190          -1.80167      -999          -1.80167 
 50            190          -.183404      -999          -.183404 
 60            190           .757538      -999           .757538 
 70            190           .848963      -999           .848963 
 80            190          -.899705      -999          -.899705 
 90            190          -28.15831     -999          -28.15831
 0             200          -999          -999          -999     
 10            200          -13.40502     -999          -13.40502
 20            200          -7.520503     -999          -7.520503
 30            200          -4.124111     -999          -4.124111
 40            200          -1.80167      -999          -1.80167 
 50            200          -.183404      -999          -.183404 
 60            200           .757538      -999           .757538 
 70            200           .848963      -999           .848963 
 80            200          -.899705      -999          -.899705 
 90            200          -28.15831     -999          -28.15831
 0             210          -999          -999          -999     
 10            210          -13.40502     -999          -13.40502
 20            210          -7.520503     -999          -7.520503
 30            210          -4.124111     -999          -4.124111
 40            210          -1.80167      -999          -1.80167 
 50            210          -.183404      -999          -.183404 
 60            210           .757538      -999           .757538 
 70            210           .848963      -999           .848963 
 80            210          -.899705      -999          -.899705 
 90            210          -28.15831     -999          -28.15831
 0             220          -999          -999          -999     
 10            220          -13.40502     -999          -13.40502
 20            220          -7.520503     -999          -7.520503
 30            220          -4.124111     -999          -4.124111
 40            220          -1.80167      -999          -1.80167 
 50            220          -.183404      -999          -.183404 
 60            220           .757538      -999           .757538 
 70            220           .848963      -999           .848963 
 80            220          -.899705      -999          -.899705 
 90            220          -28.15831     -999          -28.15831
 0             230          -999          -999          -999     
 10            230          -13.40502     -999          -13.40502
 20            230          -7.520503     -999          -7.520503
 30            230          -4.124111     -999          -4.124111
 40            230          -1.80167      -999          -1.80167 
 50            230          -.183404      -999          -.183404 
 60            230           .757538      -999           .757538 
 70            230           .848963      -999           .848963 
 80            230          -.899705      -999          -.899705 
 90            230          -28.15831     -999          -28.15831
 0             240          -999          -999          -999     
 10            240          -13.40502     -999          -13.40502
 20            240          -7.520503     -999          -7.520503
 30            240          -4.124111     -999          -4.124111
 40            240          -1.80167      -999          -1.80167 
 50            240          -.183404      -999          -.183404 
 60            240           .757538      -999           .757538 
 70            240           .848963      -999           .848963 
 80            240          -.899705      -999          -.899705 
 90            240          -28.15831     -999          -28.15831
 0             250          -999          -999          -999     
 10            250          -13.40502     -999          -13.40502
 20            250          -7.520503     -999          -7.520503
 30            250          -4.124111     -999          -4.124111
 40            250          -1.80167      -999          -1.80167 
 50            250          -.183404      -999          -.183404 
 60            250           .757538      -999           .757538 
 70            250           .848963      -999           .848963 
 80            250          -.899705      -999          -.899705 
 90            250          -28.15831     -999          -28.15831
 0             260          -999          -999          -999     
 10            260          -13.40502     -999          -13.40502
 20            260          -7.520503     -999          -7.520503
 30            260          -4.124111     -999          -4.124111
 40            260          -1.80167      -999          -1.80167 
 50            260          -.183404      -999          -.183404 
 60            260           .757538      -999           .757538 
 70            260           .848963      -999           .848963 
 80            260          -.899705      -999          -.899705 
 90            260          -28.15831     -999          -28.15831
 0             270          -999          -999          -999     
 10            270          -13.40502     -999          -13.40502
 20            270          -7.520503     -999          -7.520503
 30            270          -4.124111     -999          -4.124111
 40            270          -1.80167      -999          -1.80167 
 50            270          -.183404      -999          -.183404 
 60            270           .757538      -999           .757538 
 70            270           .848963      -999           .848963 
 80            270          -.899705      -999          -.899705 
 90            270          -28.15831     -999          -28.15831
 0             280          -999          -999          -999     
 10            280          -13.40502     -999          -13.40502
 20            280          -7.520503     -999          -7.520503
 30            280          -4.124111     -999          -4.124111
 40            280          -1.80167      -999          -1.80167 
 50            280          -.183404      -999          -.183404 
 60            280           .757538      -999           .757538 
 70            280           .848963      -999           .848963 
 80            280          -.899705      -999          -.899705 
 90            280          -28.15831     -999          -28.15831
 0             290          -999          -999          -999     
 10            290          -13.40502     -999          -13.40502
 20            290          -7.520503     -999          -7.520503
 30            290          -4.124111     -999          -4.124111
 40            290          -1.80167      -999          -1.80167 
 50            290          -.183404      -999          -.183404 
 60            290           .757538      -999           .757538 
 70            290           .848963      -999           .848963 
 80            290          -.899705      -999          -.899705 
 90            290          -28.15831     -999          -28.15831
 0             300          -999          -999          -999     
 10            300          -13.40502     -999          -13.40502
 20            300          -7.520503     -999          -7.520503
 30            300          -4.124111     -999          -4.124111
 40            300          -1.80167      -999          -1.80167 
 50            300          -.183404      -999          -.183404 
 60            300           .757538      -999           .757538 
 70            300           .848963      -999           .848963 
 80            300          -.899705      -999          -.899705 
 90            300          -28.15831     -999          -28.15831
 0             310          -999          -999          -999     
 10            310          -13.40502     -999          -13.40502
 20            310          -7.520503     -999          -7.520503
 30            310          -4.124111     -999          -4.124111
 40            310          -1.80167      -999          -1.80167 
 50            310          -.183404      -999          -.183404 
 60            310           .757538      -999           .757538 
 70            310           .848963      -999           .848963 
 80            310          -.899705      -999          -.899705 
 90            310          -28.15831     -999          -28.15831
 0             320          -999          -999          -999     
 10            320          -13.40502     -999          -13.40502
 20            320          -7.520503     -999          -7.520503
 30            320          -4.124111     -999          -4.124111
 40            320          -1.80167      -999          -1.80167 
 50            320          -.183404      -999          -.183404 
 60            320           .757538      -999           .757538 
 70            320           .848963      -999           .848963 
 80            320          -.899705      -999          -.899705 
 90            320          -28.15831     -999          -28.15831
 0             330          -999          -999          -999     
 10            330          -13.40502     -999          -13.40502
 20            330          -7.520503     -999          -7.520503
 30            330          -4.124111     -999          -4.124111
 40            330          -1.80167      -999          -1.80167 
 50            330          -.183404      -999          -.183404 
 60            330           .757538      -999           .757538 
 70            330           .848963      -999           .848963 
 80            330          -.899705      -999          -.899705 
 90            330          -28.15831     -999          -28.15831
 0             340          -999          -999          -999     
 10            340          -13.40502     -999          -13.40502
 20            340          -7.520503     -999          -7.520503
 30            340          -4.124111     -999          -4.124111
 40            340          -1.80167      -999          -1.80167 
 50            340          -.183404      -999          -.183404 
 60            340           .757538      -999           .757538 
 70            340           .848963      -999           .848963 
 80            340          -.899705      -999          -.899705 
 90            340          -28.15831     -999          -28.15831
 0             350          -999          -999          -999     
 10            350          -13.40502     -999          -13.40502
 20            350          -7.520503     -999          -7.520503
 30            350          -4.124111     -999          -4.124111
 40            350          -1.80167      -999          -1.80167 
 50            350          -.183404      -999          -.183404 
 60            350           .757538      -999           .757538 
 70            350           .848963      -999           .848963 
 80            350          -.899705      -999          -.899705 
 90            350          -28.15831     -999          -28.15831
 0             360          -999          -999          -999     
 10            360          -13.40502     -999          -13.40502
 20            360          -7.520503     -999          -7.520503
 30            360          -4.124111     -999          -4.124111
 40            360          -1.80167      -999          -1.80167 
 50            360          -.183404      -999          -.183404 
 60            360           .757538      -999           .757538 
 70            360           .848963      -999           .848963 
 80            360          -.899705      -999          -.899705 
 90            360          -28.15831     -999          -28.15831
