                   ****************************************
                     MINI-NUMERICAL ELECTROMAGNETICS CODE
                                   MININEC
                       2024-09-20              14:05:05
                   ****************************************
 
FREQUENCY (MHZ): 14.05
    WAVE LENGTH =  21.338078 METERS
 
ENVIRONMENT (+1 FOR FREE SPACE, -1 FOR GROUND PLANE): -1
 NUMBER OF MEDIA (0 FOR PERFECTLY CONDUCTING GROUND):  2
 TYPE OF BOUNDARY (1-LINEAR, 2-CIRCULAR):  2
 RELATIVE DIELECTRIC CONSTANT, CONDUCTIVITY:  20, .0303
 NUMBER OF RADIAL WIRES IN GROUND SCREEN:  16
 RADIUS OF RADIAL WIRES:  .001
 X OR R COORDINATE OF NEXT MEDIA INTERFACE:  5.05968
 RELATIVE DIELECTRIC CONSTANT, CONDUCTIVITY:  20, .0303
 HEIGHT OF MEDIA:  0
 
NO. OF WIRES: 2
 
WIRE NO.1
            COORDINATES                                 END         NO. OF
   X             Y             Z          RADIUS     CONNECTION     SEGMENTS
 0             0             0                          -1
 0             0             5.35          .0015         0             32
 
WIRE NO.2
            COORDINATES                                 END         NO. OF
   X             Y             Z          RADIUS     CONNECTION     SEGMENTS
 0             0             5.35                        1
 0             0             6.864         .0015         0             8
 
                  **** ANTENNA GEOMETRY ****
 
WIRE NO.  1 COORDINATES                                 CONNECTION PULSE
X             Y             Z             RADIUS        END1 END2  NO.
 0             0             0             .0015         -1    1    1
 0             0             .1671875      .0015          1    1    2
 0             0             .334375       .0015          1    1    3
 0             0             .5015625      .0015          1    1    4
 0             0             .66875        .0015          1    1    5
 0             0             .8359375      .0015          1    1    6
 0             0             1.003125      .0015          1    1    7
 0             0             1.1703125     .0015          1    1    8
 0             0             1.3375        .0015          1    1    9
 0             0             1.5046875     .0015          1    1   10
 0             0             1.671875      .0015          1    1   11
 0             0             1.8390625     .0015          1    1   12
 0             0             2.00625       .0015          1    1   13
 0             0             2.1734375     .0015          1    1   14
 0             0             2.340625      .0015          1    1   15
 0             0             2.5078125     .0015          1    1   16
 0             0             2.675         .0015          1    1   17
 0             0             2.8421875     .0015          1    1   18
 0             0             3.009375      .0015          1    1   19
 0             0             3.1765625     .0015          1    1   20
 0             0             3.34375       .0015          1    1   21
 0             0             3.5109375     .0015          1    1   22
 0             0             3.678125      .0015          1    1   23
 0             0             3.8453125     .0015          1    1   24
 0             0             4.0125        .0015          1    1   25
 0             0             4.1796875     .0015          1    1   26
 0             0             4.346875      .0015          1    1   27
 0             0             4.5140625     .0015          1    1   28
 0             0             4.68125       .0015          1    1   29
 0             0             4.8484375     .0015          1    1   30
 0             0             5.015625      .0015          1    1   31
 0             0             5.1828125     .0015          1    0   32
 
WIRE NO.  2 COORDINATES                                 CONNECTION PULSE
X             Y             Z             RADIUS        END1 END2  NO.
 0             0             5.35          .0015          1    2   33
 0             0             5.53925       .0015          2    2   34
 0             0             5.7285        .0015          2    2   35
 0             0             5.91775       .0015          2    2   36
 0             0             6.107         .0015          2    2   37
 0             0             6.29625       .0015          2    2   38
 0             0             6.4855        .0015          2    2   39
 0             0             6.67475       .0015          2    0   40
 
NO. OF SOURCES :  1
PULSE NO., VOLTAGE MAGNITUDE, PHASE (DEGREES):  1, 2, 0
NUMBER OF LOADS 1
PULSE NO., ORDER OF S-PARAMETER FUNCTION:  32, 2
NUMERATOR, DENOMINATOR COEFFICIENTS OF S^0: 1, 1
NUMERATOR, DENOMINATOR COEFFICIENTS OF S^1: 1.457, 8.800000E-05
NUMERATOR, DENOMINATOR COEFFICIENTS OF S^2: 0, 1.282160E-04
 
********************    SOURCE DATA     ********************
PULSE  1      VOLTAGE = ( 2, 0J)
              CURRENT = ( .04206206, 3.870953E-04J)
              IMPEDANCE = ( 47.544758,-.43755236J)
              POWER =  .04206206 WATTS
 
********************    CURRENT DATA    ********************
 
WIRE NO. 1:
PULSE         REAL          IMAGINARY     MAGNITUDE     PHASE
 NO.          (AMPS)        (AMPS)        (AMPS)        (DEGREES)
 1             .04206206     3.870953E-04  .04206384     .5272757
 2             .04201147     3.152753E-05  .04201148     .04299764
 3             .04185979    -2.430152E-04  .04186049    -.33262447
 4             .04160735    -4.859628E-04  .04161018    -.66916909
 5             .04125469    -7.065502E-04  .04126074    -.98118277
 6             .04080257    -9.085374E-04  .04081268    -1.2755757
 7             .04025194    -.0010938      .0402668     -1.5565618
 8             .039604      -.00126337     .03962414    -1.8271205
 9             .03886011    -.00141786     .03888597    -2.0895806
 10            .03802185    -.00155763     .03805374    -2.345906
 11            .03709098    -.0016829      .03712914    -2.5978593
 12            .03606945    -.00179382     .03611403    -2.8471099
 13            .03495938    -.00189047     .03501046    -3.0953188
 14            .03376305    -.00197291     .03382064    -3.3442137
 15            .03248289    -.00204119     .03254696    -3.5956683
 16            .03112148    -.00209535     .03119194    -3.8517933
 17            .02968151    -.00213543     .02975822    -4.1150525
 18            .02816575    -.00216151     .02824857    -4.3884182
 19            .02657709    -.00217364     .02666583    -4.6755914
 20            .02491841    -.00217189     .02501289    -4.9813228
 21            .02319263    -.00215638     .02329266    -5.3119032
 22            .0214026     -.00212719     .02150805    -5.6759377
 23            .01955102    -.00208444     .01966183    -6.0856226
 24            .01764039    -.00202826     .01775661    -6.558958
 25            .01567277    -.00195876     .0157947     -7.1238109
 26            .01364957    -.00187605     .01377789    -7.8259406
 27            .01157107    -.00178021     .01170721    -8.7463826
 28            .00943555    -.00167122     .00958241    -10.044049
 29            .00723749    -.00154893     .00740138    -12.079925
 30            .00496277    -.00141279     .00515995    -15.890443
 31            .00257258    -.00126112     .00286507    -26.114883
 32           -1.529620E-04 -.00108394     .00109468    -98.032318
J              3.561102E-04 -.00104569     .00110467    -71.193737
 
WIRE NO. 2:
PULSE         REAL          IMAGINARY     MAGNITUDE     PHASE
 NO.          (AMPS)        (AMPS)        (AMPS)        (DEGREES)
J              3.561102E-04 -.00104569     .00110467    -71.193737
 34            5.479169E-04 -9.728044E-04  .0011165     -60.610291
 35            6.138018E-04 -8.816469E-04  .00107427    -55.154396
 36            6.084870E-04 -7.748575E-04  9.852211E-04 -51.857846
 37            5.542803E-04 -6.534454E-04  8.568649E-04 -49.693967
 38            4.628152E-04 -5.176829E-04  6.944016E-04 -48.202877
 39            3.405382E-04 -3.670434E-04  5.006867E-04 -47.14523
 40            1.898130E-04 -1.991988E-04  2.751530E-04 -46.382129
E              0             0             0             0
 
********************     FAR FIELD      ********************
 
ZENITH ANGLE : INITIAL,INCREMENT,NUMBER:  0, 10, 10
AZIMUTH ANGLE: INITIAL,INCREMENT,NUMBER:  0, 10, 37
 
 
********************    PATTERN DATA    ********************
ZENITH        AZIMUTH       VERTICAL      HORIZONTAL    TOTAL
 ANGLE         ANGLE        PATTERN (DB)  PATTERN (DB)  PATTERN (DB)
 0             0            -999          -999          -999
 10            0            -13.405023    -999          -13.405023
 20            0            -7.5205028    -999          -7.5205028
 30            0            -4.1241109    -999          -4.1241109
 40            0            -1.80167      -999          -1.80167
 50            0            -.18340363    -999          -.18340363
 60            0             .75753802    -999           .75753802
 70            0             .84896262    -999           .84896262
 80            0            -.89970466    -999          -.89970466
 90            0            -28.158313    -999          -28.158313
 0             10           -999          -999          -999
 10            10           -13.405023    -999          -13.405023
 20            10           -7.5205028    -999          -7.5205028
 30            10           -4.1241109    -999          -4.1241109
 40            10           -1.80167      -999          -1.80167
 50            10           -.18340363    -999          -.18340363
 60            10            .75753802    -999           .75753802
 70            10            .84896262    -999           .84896262
 80            10           -.89970466    -999          -.89970466
 90            10           -28.158313    -999          -28.158313
 0             20           -999          -999          -999
 10            20           -13.405023    -999          -13.405023
 20            20           -7.5205028    -999          -7.5205028
 30            20           -4.1241109    -999          -4.1241109
 40            20           -1.80167      -999          -1.80167
 50            20           -.18340363    -999          -.18340363
 60            20            .75753802    -999           .75753802
 70            20            .84896262    -999           .84896262
 80            20           -.89970466    -999          -.89970466
 90            20           -28.158313    -999          -28.158313
 0             30           -999          -999          -999
 10            30           -13.405023    -999          -13.405023
 20            30           -7.5205028    -999          -7.5205028
 30            30           -4.1241109    -999          -4.1241109
 40            30           -1.80167      -999          -1.80167
 50            30           -.18340363    -999          -.18340363
 60            30            .75753802    -999           .75753802
 70            30            .84896262    -999           .84896262
 80            30           -.89970466    -999          -.89970466
 90            30           -28.158313    -999          -28.158313
 0             40           -999          -999          -999
 10            40           -13.405023    -999          -13.405023
 20            40           -7.5205028    -999          -7.5205028
 30            40           -4.1241109    -999          -4.1241109
 40            40           -1.80167      -999          -1.80167
 50            40           -.18340363    -999          -.18340363
 60            40            .75753802    -999           .75753802
 70            40            .84896262    -999           .84896262
 80            40           -.89970466    -999          -.89970466
 90            40           -28.158313    -999          -28.158313
 0             50           -999          -999          -999
 10            50           -13.405023    -999          -13.405023
 20            50           -7.5205028    -999          -7.5205028
 30            50           -4.1241109    -999          -4.1241109
 40            50           -1.80167      -999          -1.80167
 50            50           -.18340363    -999          -.18340363
 60            50            .75753802    -999           .75753802
 70            50            .84896262    -999           .84896262
 80            50           -.89970466    -999          -.89970466
 90            50           -28.158313    -999          -28.158313
 0             60           -999          -999          -999
 10            60           -13.405023    -999          -13.405023
 20            60           -7.5205028    -999          -7.5205028
 30            60           -4.1241109    -999          -4.1241109
 40            60           -1.80167      -999          -1.80167
 50            60           -.18340363    -999          -.18340363
 60            60            .75753802    -999           .75753802
 70            60            .84896262    -999           .84896262
 80            60           -.89970466    -999          -.89970466
 90            60           -28.158313    -999          -28.158313
 0             70           -999          -999          -999
 10            70           -13.405023    -999          -13.405023
 20            70           -7.5205028    -999          -7.5205028
 30            70           -4.1241109    -999          -4.1241109
 40            70           -1.80167      -999          -1.80167
 50            70           -.18340363    -999          -.18340363
 60            70            .75753802    -999           .75753802
 70            70            .84896262    -999           .84896262
 80            70           -.89970466    -999          -.89970466
 90            70           -28.158313    -999          -28.158313
 0             80           -999          -999          -999
 10            80           -13.405023    -999          -13.405023
 20            80           -7.5205028    -999          -7.5205028
 30            80           -4.1241109    -999          -4.1241109
 40            80           -1.80167      -999          -1.80167
 50            80           -.18340363    -999          -.18340363
 60            80            .75753802    -999           .75753802
 70            80            .84896262    -999           .84896262
 80            80           -.89970466    -999          -.89970466
 90            80           -28.158313    -999          -28.158313
 0             90           -999          -999          -999
 10            90           -13.405023    -999          -13.405023
 20            90           -7.5205028    -999          -7.5205028
 30            90           -4.1241109    -999          -4.1241109
 40            90           -1.80167      -999          -1.80167
 50            90           -.18340363    -999          -.18340363
 60            90            .75753802    -999           .75753802
 70            90            .84896262    -999           .84896262
 80            90           -.89970466    -999          -.89970466
 90            90           -28.158313    -999          -28.158313
 0             100          -999          -999          -999
 10            100          -13.405023    -999          -13.405023
 20            100          -7.5205028    -999          -7.5205028
 30            100          -4.1241109    -999          -4.1241109
 40            100          -1.80167      -999          -1.80167
 50            100          -.18340363    -999          -.18340363
 60            100           .75753802    -999           .75753802
 70            100           .84896262    -999           .84896262
 80            100          -.89970466    -999          -.89970466
 90            100          -28.158313    -999          -28.158313
 0             110          -999          -999          -999
 10            110          -13.405023    -999          -13.405023
 20            110          -7.5205028    -999          -7.5205028
 30            110          -4.1241109    -999          -4.1241109
 40            110          -1.80167      -999          -1.80167
 50            110          -.18340363    -999          -.18340363
 60            110           .75753802    -999           .75753802
 70            110           .84896262    -999           .84896262
 80            110          -.89970466    -999          -.89970466
 90            110          -28.158313    -999          -28.158313
 0             120          -999          -999          -999
 10            120          -13.405023    -999          -13.405023
 20            120          -7.5205028    -999          -7.5205028
 30            120          -4.1241109    -999          -4.1241109
 40            120          -1.80167      -999          -1.80167
 50            120          -.18340363    -999          -.18340363
 60            120           .75753802    -999           .75753802
 70            120           .84896262    -999           .84896262
 80            120          -.89970466    -999          -.89970466
 90            120          -28.158313    -999          -28.158313
 0             130          -999          -999          -999
 10            130          -13.405023    -999          -13.405023
 20            130          -7.5205028    -999          -7.5205028
 30            130          -4.1241109    -999          -4.1241109
 40            130          -1.80167      -999          -1.80167
 50            130          -.18340363    -999          -.18340363
 60            130           .75753802    -999           .75753802
 70            130           .84896262    -999           .84896262
 80            130          -.89970466    -999          -.89970466
 90            130          -28.158313    -999          -28.158313
 0             140          -999          -999          -999
 10            140          -13.405023    -999          -13.405023
 20            140          -7.5205028    -999          -7.5205028
 30            140          -4.1241109    -999          -4.1241109
 40            140          -1.80167      -999          -1.80167
 50            140          -.18340363    -999          -.18340363
 60            140           .75753802    -999           .75753802
 70            140           .84896262    -999           .84896262
 80            140          -.89970466    -999          -.89970466
 90            140          -28.158313    -999          -28.158313
 0             150          -999          -999          -999
 10            150          -13.405023    -999          -13.405023
 20            150          -7.5205028    -999          -7.5205028
 30            150          -4.1241109    -999          -4.1241109
 40            150          -1.80167      -999          -1.80167
 50            150          -.18340363    -999          -.18340363
 60            150           .75753802    -999           .75753802
 70            150           .84896262    -999           .84896262
 80            150          -.89970466    -999          -.89970466
 90            150          -28.158313    -999          -28.158313
 0             160          -999          -999          -999
 10            160          -13.405023    -999          -13.405023
 20            160          -7.5205028    -999          -7.5205028
 30            160          -4.1241109    -999          -4.1241109
 40            160          -1.80167      -999          -1.80167
 50            160          -.18340363    -999          -.18340363
 60            160           .75753802    -999           .75753802
 70            160           .84896262    -999           .84896262
 80            160          -.89970466    -999          -.89970466
 90            160          -28.158313    -999          -28.158313
 0             170          -999          -999          -999
 10            170          -13.405023    -999          -13.405023
 20            170          -7.5205028    -999          -7.5205028
 30            170          -4.1241109    -999          -4.1241109
 40            170          -1.80167      -999          -1.80167
 50            170          -.18340363    -999          -.18340363
 60            170           .75753802    -999           .75753802
 70            170           .84896262    -999           .84896262
 80            170          -.89970466    -999          -.89970466
 90            170          -28.158313    -999          -28.158313
 0             180          -999          -999          -999
 10            180          -13.405023    -999          -13.405023
 20            180          -7.5205028    -999          -7.5205028
 30            180          -4.1241109    -999          -4.1241109
 40            180          -1.80167      -999          -1.80167
 50            180          -.18340363    -999          -.18340363
 60            180           .75753802    -999           .75753802
 70            180           .84896262    -999           .84896262
 80            180          -.89970466    -999          -.89970466
 90            180          -28.158313    -999          -28.158313
 0             190          -999          -999          -999
 10            190          -13.405023    -999          -13.405023
 20            190          -7.5205028    -999          -7.5205028
 30            190          -4.1241109    -999          -4.1241109
 40            190          -1.80167      -999          -1.80167
 50            190          -.18340363    -999          -.18340363
 60            190           .75753802    -999           .75753802
 70            190           .84896262    -999           .84896262
 80            190          -.89970466    -999          -.89970466
 90            190          -28.158313    -999          -28.158313
 0             200          -999          -999          -999
 10            200          -13.405023    -999          -13.405023
 20            200          -7.5205028    -999          -7.5205028
 30            200          -4.1241109    -999          -4.1241109
 40            200          -1.80167      -999          -1.80167
 50            200          -.18340363    -999          -.18340363
 60            200           .75753802    -999           .75753802
 70            200           .84896262    -999           .84896262
 80            200          -.89970466    -999          -.89970466
 90            200          -28.158313    -999          -28.158313
 0             210          -999          -999          -999
 10            210          -13.405023    -999          -13.405023
 20            210          -7.5205028    -999          -7.5205028
 30            210          -4.1241109    -999          -4.1241109
 40            210          -1.80167      -999          -1.80167
 50            210          -.18340363    -999          -.18340363
 60            210           .75753802    -999           .75753802
 70            210           .84896262    -999           .84896262
 80            210          -.89970466    -999          -.89970466
 90            210          -28.158313    -999          -28.158313
 0             220          -999          -999          -999
 10            220          -13.405023    -999          -13.405023
 20            220          -7.5205028    -999          -7.5205028
 30            220          -4.1241109    -999          -4.1241109
 40            220          -1.80167      -999          -1.80167
 50            220          -.18340363    -999          -.18340363
 60            220           .75753802    -999           .75753802
 70            220           .84896262    -999           .84896262
 80            220          -.89970466    -999          -.89970466
 90            220          -28.158313    -999          -28.158313
 0             230          -999          -999          -999
 10            230          -13.405023    -999          -13.405023
 20            230          -7.5205028    -999          -7.5205028
 30            230          -4.1241109    -999          -4.1241109
 40            230          -1.80167      -999          -1.80167
 50            230          -.18340363    -999          -.18340363
 60            230           .75753802    -999           .75753802
 70            230           .84896262    -999           .84896262
 80            230          -.89970466    -999          -.89970466
 90            230          -28.158313    -999          -28.158313
 0             240          -999          -999          -999
 10            240          -13.405023    -999          -13.405023
 20            240          -7.5205028    -999          -7.5205028
 30            240          -4.1241109    -999          -4.1241109
 40            240          -1.80167      -999          -1.80167
 50            240          -.18340363    -999          -.18340363
 60            240           .75753802    -999           .75753802
 70            240           .84896262    -999           .84896262
 80            240          -.89970466    -999          -.89970466
 90            240          -28.158313    -999          -28.158313
 0             250          -999          -999          -999
 10            250          -13.405023    -999          -13.405023
 20            250          -7.5205028    -999          -7.5205028
 30            250          -4.1241109    -999          -4.1241109
 40            250          -1.80167      -999          -1.80167
 50            250          -.18340363    -999          -.18340363
 60            250           .75753802    -999           .75753802
 70            250           .84896262    -999           .84896262
 80            250          -.89970466    -999          -.89970466
 90            250          -28.158313    -999          -28.158313
 0             260          -999          -999          -999
 10            260          -13.405023    -999          -13.405023
 20            260          -7.5205028    -999          -7.5205028
 30            260          -4.1241109    -999          -4.1241109
 40            260          -1.80167      -999          -1.80167
 50            260          -.18340363    -999          -.18340363
 60            260           .75753802    -999           .75753802
 70            260           .84896262    -999           .84896262
 80            260          -.89970466    -999          -.89970466
 90            260          -28.158313    -999          -28.158313
 0             270          -999          -999          -999
 10            270          -13.405023    -999          -13.405023
 20            270          -7.5205028    -999          -7.5205028
 30            270          -4.1241109    -999          -4.1241109
 40            270          -1.80167      -999          -1.80167
 50            270          -.18340363    -999          -.18340363
 60            270           .75753802    -999           .75753802
 70            270           .84896262    -999           .84896262
 80            270          -.89970466    -999          -.89970466
 90            270          -28.158313    -999          -28.158313
 0             280          -999          -999          -999
 10            280          -13.405023    -999          -13.405023
 20            280          -7.5205028    -999          -7.5205028
 30            280          -4.1241109    -999          -4.1241109
 40            280          -1.80167      -999          -1.80167
 50            280          -.18340363    -999          -.18340363
 60            280           .75753802    -999           .75753802
 70            280           .84896262    -999           .84896262
 80            280          -.89970466    -999          -.89970466
 90            280          -28.158313    -999          -28.158313
 0             290          -999          -999          -999
 10            290          -13.405023    -999          -13.405023
 20            290          -7.5205028    -999          -7.5205028
 30            290          -4.1241109    -999          -4.1241109
 40            290          -1.80167      -999          -1.80167
 50            290          -.18340363    -999          -.18340363
 60            290           .75753802    -999           .75753802
 70            290           .84896262    -999           .84896262
 80            290          -.89970466    -999          -.89970466
 90            290          -28.158313    -999          -28.158313
 0             300          -999          -999          -999
 10            300          -13.405023    -999          -13.405023
 20            300          -7.5205028    -999          -7.5205028
 30            300          -4.1241109    -999          -4.1241109
 40            300          -1.80167      -999          -1.80167
 50            300          -.18340363    -999          -.18340363
 60            300           .75753802    -999           .75753802
 70            300           .84896262    -999           .84896262
 80            300          -.89970466    -999          -.89970466
 90            300          -28.158313    -999          -28.158313
 0             310          -999          -999          -999
 10            310          -13.405023    -999          -13.405023
 20            310          -7.5205028    -999          -7.5205028
 30            310          -4.1241109    -999          -4.1241109
 40            310          -1.80167      -999          -1.80167
 50            310          -.18340363    -999          -.18340363
 60            310           .75753802    -999           .75753802
 70            310           .84896262    -999           .84896262
 80            310          -.89970466    -999          -.89970466
 90            310          -28.158313    -999          -28.158313
 0             320          -999          -999          -999
 10            320          -13.405023    -999          -13.405023
 20            320          -7.5205028    -999          -7.5205028
 30            320          -4.1241109    -999          -4.1241109
 40            320          -1.80167      -999          -1.80167
 50            320          -.18340363    -999          -.18340363
 60            320           .75753802    -999           .75753802
 70            320           .84896262    -999           .84896262
 80            320          -.89970466    -999          -.89970466
 90            320          -28.158313    -999          -28.158313
 0             330          -999          -999          -999
 10            330          -13.405023    -999          -13.405023
 20            330          -7.5205028    -999          -7.5205028
 30            330          -4.1241109    -999          -4.1241109
 40            330          -1.80167      -999          -1.80167
 50            330          -.18340363    -999          -.18340363
 60            330           .75753802    -999           .75753802
 70            330           .84896262    -999           .84896262
 80            330          -.89970466    -999          -.89970466
 90            330          -28.158313    -999          -28.158313
 0             340          -999          -999          -999
 10            340          -13.405023    -999          -13.405023
 20            340          -7.5205028    -999          -7.5205028
 30            340          -4.1241109    -999          -4.1241109
 40            340          -1.80167      -999          -1.80167
 50            340          -.18340363    -999          -.18340363
 60            340           .75753802    -999           .75753802
 70            340           .84896262    -999           .84896262
 80            340          -.89970466    -999          -.89970466
 90            340          -28.158313    -999          -28.158313
 0             350          -999          -999          -999
 10            350          -13.405023    -999          -13.405023
 20            350          -7.5205028    -999          -7.5205028
 30            350          -4.1241109    -999          -4.1241109
 40            350          -1.80167      -999          -1.80167
 50            350          -.18340363    -999          -.18340363
 60            350           .75753802    -999           .75753802
 70            350           .84896262    -999           .84896262
 80            350          -.89970466    -999          -.89970466
 90            350          -28.158313    -999          -28.158313
 0             360          -999          -999          -999
 10            360          -13.405023    -999          -13.405023
 20            360          -7.5205028    -999          -7.5205028
 30            360          -4.1241109    -999          -4.1241109
 40            360          -1.80167      -999          -1.80167
 50            360          -.18340363    -999          -.18340363
 60            360           .75753802    -999           .75753802
 70            360           .84896262    -999           .84896262
 80            360          -.89970466    -999          -.89970466
 90            360          -28.158313    -999          -28.158313
