                   ****************************************
                     MINI-NUMERICAL ELECTROMAGNETICS CODE
                                   MININEC
                       2025-01-06              21:49:42
                   ****************************************
 
FREQUENCY (MHZ): 450
    WAVE LENGTH =  .66622222 METERS
 
ENVIRONMENT (+1 FOR FREE SPACE, -1 FOR GROUND PLANE): -1
 NUMBER OF MEDIA (0 FOR PERFECTLY CONDUCTING GROUND):  0
 
NO. OF WIRES: 4
 
WIRE NO.1
            COORDINATES                                 END         NO. OF
   X             Y             Z          RADIUS     CONNECTION     SEGMENTS
 .1125         0             0                          -1
 .03536143     .10679803     .02986667     .00127        0             2
 
WIRE NO.2
            COORDINATES                                 END         NO. OF
   X             Y             Z          RADIUS     CONNECTION     SEGMENTS
 .03536143     .10679803     .02986667                   1
-.03386685     .10728134     .0448         .00127        0             1
 
WIRE NO.3
            COORDINATES                                 END         NO. OF
   X             Y             Z          RADIUS     CONNECTION     SEGMENTS
-.03386685     .10728134     .0448                       2
-.09027012     .06713834     .05973333     .00127        0             1
 
WIRE NO.4
            COORDINATES                                 END         NO. OF
   X             Y             Z          RADIUS     CONNECTION     SEGMENTS
-.09027012     .06713834     .05973333                   3
-.11248903     .00157075     .07466667     .00127        0             1
 
                  **** ANTENNA GEOMETRY ****
 
WIRE NO.  1 COORDINATES                                 CONNECTION PULSE
X             Y             Z             RADIUS        END1 END2  NO.
 .1125         0             0             .00127        -1    1    1
 .07393072     .05339901     .01493333     .00127         1    0    2
 
WIRE NO.  2 COORDINATES                                 CONNECTION PULSE
X             Y             Z             RADIUS        END1 END2  NO.
 .03536143     .10679803     .02986667     .00127         1    0    3
 
WIRE NO.  3 COORDINATES                                 CONNECTION PULSE
X             Y             Z             RADIUS        END1 END2  NO.
-.03386685     .10728134     .0448         .00127         2    0    4
 
WIRE NO.  4 COORDINATES                                 CONNECTION PULSE
X             Y             Z             RADIUS        END1 END2  NO.
-.09027012     .06713834     .05973333     .00127         3    0    5
 
NO. OF SOURCES :  1
PULSE NO., VOLTAGE MAGNITUDE, PHASE (DEGREES):  1, 1, 0
NUMBER OF LOADS 0
 
********************    SOURCE DATA     ********************
PULSE  1      VOLTAGE = ( 1, 0J)
              CURRENT = ( 9.325907E-04,-.00832643J)
              IMPEDANCE = ( 13.284936, 118.61157J)
              POWER =  4.662953E-04 WATTS
 
********************    CURRENT DATA    ********************
 
WIRE NO. 1:
PULSE         REAL          IMAGINARY     MAGNITUDE     PHASE
 NO.          (AMPS)        (AMPS)        (AMPS)        (DEGREES)
 1             9.325907E-04 -.00832643     .00837849    -83.609295
 2             9.124367E-04 -.00443339     .00452631    -78.370322
J              .00106329    -.00843971     .00850642    -82.819351
 
WIRE NO. 2:
PULSE         REAL          IMAGINARY     MAGNITUDE     PHASE
 NO.          (AMPS)        (AMPS)        (AMPS)        (DEGREES)
J              .00106329    -.00843971     .00850642    -82.819351
J              9.210768E-04 -.00908766     .00913422    -84.212572
 
WIRE NO. 3:
PULSE         REAL          IMAGINARY     MAGNITUDE     PHASE
 NO.          (AMPS)        (AMPS)        (AMPS)        (DEGREES)
J              9.210768E-04 -.00908766     .00913422    -84.212572
J              5.260979E-04 -.00598073     .00600383    -84.97289
 
WIRE NO. 4:
PULSE         REAL          IMAGINARY     MAGNITUDE     PHASE
 NO.          (AMPS)        (AMPS)        (AMPS)        (DEGREES)
J              5.260979E-04 -.00598073     .00600383    -84.97289
E              0             0             0             0
 
********************     FAR FIELD      ********************
 
ZENITH ANGLE : INITIAL,INCREMENT,NUMBER:  0, 10, 10
AZIMUTH ANGLE: INITIAL,INCREMENT,NUMBER:  0, 10, 37
 
 
********************    PATTERN DATA    ********************
ZENITH        AZIMUTH       VERTICAL      HORIZONTAL    TOTAL
 ANGLE         ANGLE        PATTERN (DB)  PATTERN (DB)  PATTERN (DB)
 0             0             4.787135     -6.1022309     5.1273293
 10            0             4.6886136    -5.9295331     5.0498429
 20            0             4.4009387    -5.7491216     4.801436
 30            0             3.9669965    -5.751105      4.4073201
 40            0             3.4624777    -6.1224748     3.9158185
 50            0             2.985995     -7.0420688     3.3973781
 60            0             2.625515     -8.7450071     2.9312572
 70            0             2.4151576    -11.701157     2.5803041
 80            0             2.3255427    -17.384638     2.3717228
 90            0             2.3039066    -999           2.3039066
 0             10            5.0800547    -14.527855     5.1273293
 10            10            4.9832041    -12.936803     5.0527548
 20            10            4.6920597    -11.020965     4.8070653
 30            10            4.2520363    -9.7401162     4.4218799
 40            10            3.7407834    -9.2671903     3.9527872
 50            10            3.2562805    -9.6449317     3.4734307
 60            10            2.8841919    -11.004198     3.0580611
 70            10            2.658858     -13.750217     2.7570236
 80            10            2.5558772    -19.320089     2.5839821
 90            10            2.5288552    -999           2.5288552
 0             20            5.1042022    -17.620865     5.1273293
 10            20            5.0167311    -15.157498     5.0582536
 20            20            4.7437527    -12.580006     4.8234453
 30            20            4.3333502    -10.97936      4.4593009
 40            20            3.8643485    -10.343927     4.0260985
 50            20            3.4303153    -10.630658     3.5975394
 60            20            3.1063641    -11.935547     3.2402946
 70            20            2.9163914    -14.648882     2.9918103
 80            20            2.8326491    -20.201057     2.8541936
 90            20            2.8113701    -999           2.8113701
 0             30            4.8610902    -7.1302351     5.1273293
 10            30            4.791003     -7.0554172     5.0659951
 20            30            4.5575888    -7.0276884     4.8490638
 30            30            4.2110162    -7.1830233     4.5151637
 40            30            3.8293141    -7.6786879     4.1258471
 50            30            3.4969617    -8.6873559     3.7519617
 60            30            3.2712105    -10.449011     3.4518037
 70            30            3.1578064    -13.440855     3.251824
 80            30            3.119977     -19.143178     3.1456917
 90            30            3.1136149    -999           3.1136149
 0             40            4.3350858    -2.6520286     5.1273293
 10            40            4.2921639    -2.7497329     5.0753204
 20            40            4.1232751    -3.0731963     4.8813021
 30            40            3.8785909    -3.6630142     4.5831534
 40            40            3.6307705    -4.5911364     4.2399937
 50            40            3.4479318    -5.9771115     3.9173887
 60            40            3.3620652    -8.0364894     3.6659074
 70            40            3.3563214    -11.239383     3.5044994
 80            40            3.3833578    -17.066704     3.4223365
 90            40            3.3982776    -999           3.3982776
 0             50            3.4891069     .09982146     5.1273293
 10            50            3.4875717    -.03182064     5.0853288
 20            50            3.4178242    -.43116645     4.9167657
 30            50            3.3243658    -1.1269822     4.6559549
 40            50            3.2647403    -2.1758601     4.3562028
 50            50            3.2793588    -3.6818428     4.075934
 60            50            3.3679384    -5.8472302     3.8593712
 70            50            3.4910105    -9.132218      3.7221392
 80            50            3.5939554    -15.011184     3.6534248
 90            50            3.6335844    -999           3.6335844
 0             60            2.2528215     1.9768539     5.1273293
 10            60            2.3174025     1.8387721     5.0949776
 20            60            2.4036214     1.4239469     4.9516499
 30            60            2.534694      .70546309     4.725983
 40            60            2.7328572    -.37054257     4.4629577
 50            60            2.9950399    -1.9048815     4.2126059
 60            60            3.2853988    -4.0965381     4.0142495
 70            60            3.5486457    -7.402704      3.8842006
 80            60            3.7311249    -13.295386     3.8164079
 90            60            3.7962023    -999           3.7962023
 0             70            .49388525     3.2958581     5.1273293
 10            70            .67633229     3.1593005     5.1031977
 20            70            1.0274742     2.7470386     4.9821126
 30            70            1.5033297     2.0318738     4.7859374
 40            70            2.0514781     .95955659     4.5500442
 50            70            2.6112422    -.57114119     4.3155479
 60            70            3.1204849    -2.7595832     4.1180575
 70            70            3.524756     -6.0632585     3.9777934
 80            70            3.7835269    -11.954374     3.8978842
 90            70            3.8724649    -999           3.8724649
 0             80           -2.0605203     4.2063855     5.1273293
 10            80           -1.6252843     4.0736465     5.1090147
 20            80           -.76750843     3.6691816     5.0046461
 30            80            .25773908     2.9649946     4.8292894
 40            80            1.2679439     1.9056475     4.6087899
 50            80            2.1625208     .38847193     4.3757586
 60            80            2.8901374    -1.7874193     4.1631288
 70            80            3.4239363    -5.080941      3.9971552
 80            80            3.7492474    -10.965459     3.8934861
 90            80            3.8584777    -999           3.8584777
 0             90           -6.1022309     4.787135      5.1273293
 10            90           -4.9265611     4.6583137     5.1116622
 20            90           -2.9562338     4.261875      5.0164438
 30            90           -1.0740191     3.5690353     4.8508185
 40            90            .48394842     2.5231684     4.6324637
 50            90            1.7062317     1.020135      4.3870179
 60            90            2.6223518    -1.1425467     4.146007
 70            90            3.2593788    -4.4253215     3.9428098
 80            90            3.6352072    -10.302827     3.8071389
 90            90            3.7594825    -999           3.7594825
 0             100          -14.527855     5.0800547     5.1273293
 10            100          -9.4030317     4.9542868     5.110677
 20            100          -5.0373023     4.564021      5.0157419
 30            100          -2.1495033     3.8798921     4.8472346
 40            100          -.13082307     2.8443901     4.6170298
 50            100           1.3199641     1.3522643     4.3464442
 60            100           2.3539741    -.80019237     4.0674587
 70            100           3.0515945    -4.074621      3.8209503
 80            100           3.4560554    -9.946667      3.6500442
 90            100           3.5887268    -999           3.5887268
 0             110          -17.620865     5.1042022     5.1273293
 10            110          -10.341263     4.9802636     5.1059626
 20            110          -5.4684096     4.5937839     5.0020934
 30            110          -2.4478846     3.9150457     4.8178045
 40            110          -.38370093     2.8859968     4.5621534
 50            110           1.0842186     1.4006957     4.2556392
 60            110           2.1252546    -.74533764     3.9332376
 70            110           2.8263452    -4.0145066     3.6433227
 80            110           3.2327298    -9.8831047     3.439655
 90            110           3.3660606    -999           3.3660606
 0             120          -7.1302351     4.8610902     5.1273293
 10            120          -5.8955073     4.7377914     5.0978133
 20            120          -3.7628522     4.3533061     4.9765175
 30            120          -1.7824604     3.6776771     4.7648056
 40            120          -.1839867      2.6524742     4.4721097
 50            120           1.0512092     1.1712864     4.1219627
 60            120           1.9715778    -.97086924     3.755226
 70            120           2.6118832    -4.2368706     3.4275066
 80            120           2.9908394    -10.103399     3.1987719
 90            120           3.1164639    -999           3.1164639
 0             130          -2.6520286     4.3350858     5.1273293
 10            130          -2.2996947     4.2115949     5.0868924
 20            130          -1.5178012     3.8289806     4.9414678
 30            130          -.56399998     3.1568813     4.6936077
 40            130           .37889905     2.1362395     4.3561562
 50            130           1.2199185     .65992964     3.9592435
 60            130           1.9150445    -1.477706      3.5521784
 70            130           2.4356811    -4.7400952     3.1970292
 80            130           2.758868     -10.604307     2.9545919
 90            130           2.8685399    -999           2.8685399
 0             140           .09982146     3.4891069     5.1273293
 10            140           .19697422     3.3652849     5.0741634
 20            140           .41873743     2.987433      4.9005912
 30            140           .73525632     2.3240952     4.6122324
 40            140           1.118578      1.3145664     4.2279776
 50            140           1.5404418    -.15007636     3.7872241
 60            140           1.9598732    -2.2770946     3.3491082
 70            140           2.3209363    -5.5311334     2.9803945
 80            140           2.5659152    -11.390054     2.7371521
 90            140           2.6526528    -999           2.6526528
 0             150           1.9768539     2.2528215     5.1273293
 10            150           1.9697762     2.1297177     5.0607832
 20            150           1.9295014     1.7649102     4.8582854
 30            150           1.8829346     1.1240611     4.5303522
 40            150           1.8737093     .14226307     4.1040073
 50            150           1.9423236    -1.2938257     3.6292504
 60            150           2.0937679    -3.395245      3.1745184
 70            150           2.2832791    -6.6293768     2.8081026
 80            150           2.4385297    -12.47578      2.5763909
 90            150           2.498065     -999           2.498065
 0             160           3.2958581     .49388525     5.1273293
 10            160           3.2371462     .37488673     5.0479684
 20            160           3.0608092     .04268958     4.8191168
 30            160           2.8081082    -.54461862     4.4578516
 40            160           2.5484534    -1.4624499     4.0007561
 50            160           2.3611162    -2.8344501     3.5082387
 60            160           2.2936017    -4.8797496     3.0553399
 70            160           2.3282799    -8.0710455     2.7073842
 80            160           2.3965141    -13.890855     2.4974374
 90            160           2.4286267    -999           2.4286267
 0             170           4.2063855    -2.0605203     5.1273293
 10            170           4.119372     -2.1656752     5.0368552
 20            170           3.8694708    -2.4142974     4.7871976
 30            170           3.5025711    -2.8715234     4.4032367
 40            170           3.0970844    -3.6418519     3.9317093
 50            170           2.7492691    -4.8734299     3.4417833
 60            170           2.5316939    -6.8011991     3.0106829
 70            170           2.4503865    -9.9059318     2.6957591
 80            170           2.4485107    -15.673297     2.5149276
 90            170           2.4575859    -999           2.4575859
 0             180           4.787135     -6.1022309     5.1273293
 10            180           4.6843885    -6.1549761     5.0283702
 20            180           4.3974716    -6.1345128     4.7656407
 30            180           3.9754162    -6.2160646     4.3722804
 40            180           3.5006539    -6.609201      3.904708
 50            180           3.0750245    -7.5204474     3.4380679
 60            180           2.7801001    -9.204259      3.0467537
 70            180           2.633678     -12.141494     2.7759547
 80            180           2.5891043    -17.81192      2.6285236
 90            180           2.5834383    -999           2.5834383
 0             190           5.0800547    -14.527855     5.1273293
 10            190           4.9696744    -14.10145      5.0231304
 20            190           4.6709623    -12.358232     4.7561931
 30            190           4.2364678    -10.910081     4.3672575
 40            190           3.7514043    -10.254722     3.9207128
 50            190           3.3172354    -10.490677     3.4942912
 60            190           3.0126313    -11.748895     3.1553485
 70            190           2.8543163    -14.427902     2.9347677
 80            190           2.7990743    -19.959545     2.8220239
 90            190           2.7890816    -999           2.7890816
 0             200           5.1042022    -17.620865     5.1273293
 10            200           4.992399     -16.749052     5.021385
 20            200           4.7024059    -14.111698     4.7590997
 30            200           4.290757     -12.208448     4.3869285
 40            200           3.844665     -11.339993     3.974329
 50            200           3.4607749    -11.466321     3.5982371
 60            200           3.2056331    -12.663312     3.3166344
 70            200           3.0840808    -15.307243     3.1465298
 80            200           3.0490038    -20.820456     3.0667845
 90            200           3.0450784    -999           3.0450784
 0             210           4.8610902    -7.1302351     5.1273293
 10            210           4.7535464    -7.1839849     5.0230029
 20            210           4.4919959    -7.254402      4.7731917
 30            210           4.1368891    -7.4669003     4.4271649
 40            210           3.7754647    -7.9861662     4.0557071
 50            210           3.4940335    -8.9979304     3.7320636
 60            210           3.3386014    -10.753203     3.5046649
 70            210           3.2941752    -13.736467     3.3793779
 80            210           3.3048216    -19.432238     3.3278851
 90            210           3.3156459    -999           3.3156459
 0             220           4.3350858    -2.6520286     5.1273293
 10            220           4.2381121    -2.7661302     5.0275042
 20            220           4.0276846    -3.1040929     4.7961379
 30            220           3.7668602    -3.705198      4.4819089
 40            220           3.5380573    -4.6409554     4.1529188
 50            220           3.4085811    -6.0312698     3.8765231
 60            220           3.3952206    -8.0925409     3.6930925
 70            220           3.4586618    -11.29588      3.6016049
 80            220           3.5333394    -17.123078     3.5705171
 90            220           3.5649862    -999           3.5649862
 0             230           3.4891069     .09982146     5.1273293
 10            230           3.4114035    -.02739005     5.0341296
 20            230           3.2836136    -.42236513     4.8247866
 30            230           3.1668515    -1.1139485     4.5441307
 40            230           3.1277784    -2.1588419     4.2539341
 50            230           3.2007536    -3.6612301     4.0141147
 60            230           3.3649433    -5.8235766     3.859235
 70            230           3.5571932    -9.1062434     3.786247
 80            230           3.7065102    -14.983752     3.764833
 90            230           3.7622225    -999           3.7622225
 0             240           2.2528215     1.9768539     5.1273293
 10            240           2.2093566     1.846334      5.0419373
 20            240           2.2168301     1.4388415     4.8555335
 30            240           2.3200769     .72723836     4.6065765
 40            240           2.5458369    -.34254842     4.3477692
 50            240           2.8750291    -1.8715202     4.1305954
 60            240           3.2449538    -4.0588248     3.9859719
 70            240           3.5769714    -7.3617857     3.9134639
 80            240           3.8040988    -13.252506     3.8887985
 90            240           3.8844518    -999           3.8844518
 0             250           .49388525     3.2958581     5.1273293
 10            250           .5166085      3.1649782     5.049916
 20            250           .76347442     2.7582328     4.8846873
 30            250           1.2159073     2.0482633     4.6622957
 40            250           1.8090876     .98066489     4.4248992
 50            250           2.4491451    -.5459376      4.215136
 60            250           3.0421909    -2.7310405     4.0619047
 70            250           3.5139533    -6.0322447     3.9711511
 80            250           3.8150089    -11.921842     3.9293935
 90            250           3.9182101    -999           3.9182101
 0             260          -2.0605203     4.2063855     5.1273293
 10            260          -1.8848399     4.0759817     5.0571035
 20            260          -1.1551647     3.6738081     4.9088273
 30            260          -.12200586     2.9718182     4.7050675
 40            260           .96815405     1.9145142     4.4773606
 50            260           1.9604074     .39915798     4.259865
 60            260           2.7748931    -1.7752126     4.0806214
 70            260           3.3733027    -5.0675848     3.9544851
 80            260           3.7376169    -10.951386     3.8826977
 90            260           3.8598189    -999           3.8598189
 0             270          -6.1022309     4.787135      5.1273293
 10            270          -5.4367856     4.6572356     5.0626987
 20            270          -3.5506004     4.2598002     4.925153
 30            270          -1.5582172     3.5661106     4.7298742
 40            270           .1343693      2.519579      4.4990056
 50            270           1.4706203     1.0160723     4.2595904
 60            270           2.4728045    -1.1469123     4.0399268
 70            270           3.1690407    -4.4298583     3.8650711
 80            270           3.5793631    -10.307445     3.7532944
 90            270           3.7149567    -999           3.7149567
 0             280          -14.527855     5.0800547     5.1273293
 10            280          -10.736146     4.950457      5.0661551
 20            280          -5.8889682     4.5565513     4.931813
 30            280          -2.7025256     3.8691363     4.7334763
 40            280          -.50425054     2.83082       4.4861515
 50            280           1.0630557     1.3364162     4.2121863
 60            280           2.1748599    -.81776711     3.9416715
 70            280           2.9228382    -4.0933903     3.7102405
 80            280           3.3557772    -9.9661329     3.5533278
 90            280           3.49768      -999           3.49768
 0             290          -17.620865     5.1042022     5.1273293
 10            290          -11.701216     4.9748727     5.0672464
 20            290          -6.2438378     4.5832541     4.9281716
 30            290          -2.9515814     3.8998489     4.7150142
 40            290          -.73762999     2.8667679     4.4385362
 50            290           .82278257     1.3781662     4.1196462
 60            290           1.9233743    -.77040078     3.7923788
 70            290           2.6619453    -4.0413449     3.5028237
 80            290           3.0891044    -9.9109889     3.301484
 90            290           3.2290987    -999           3.2290987
 0             300          -7.1302351     4.8610902     5.1273293
 10            300          -6.2459304     4.7325493     5.0660928
 20            300          -4.1724332     4.3430474     4.9149565
 30            300          -2.1395587     3.6628268     4.6764558
 40            300          -.4804213      2.6336124     4.3602216
 50            300           .80205587     1.1490954     3.9893411
 60            300           1.7552089    -.99565442     3.6043336
 70            300           2.4163366    -4.2634996     3.2613528
 80            300           2.8066768    -10.131126     3.0220496
 90            300           2.9359063    -999           2.9359063
 0             310          -2.6520286     4.3350858     5.1273293
 10            310          -2.4189184     4.2088807     5.0631432
 20            310          -1.7114965     3.823592      4.8942338
 30            310          -.7869239      3.1489103     4.6226827
 40            310           .15088158     2.1258492     4.2599764
 50            310           .99460475     .64737191     3.8347577
 60            310           1.6928869    -1.4920822     3.3963535
 70            310           2.21525      -4.7558481     3.0101683
 80            310           2.539025     -10.620919     2.7439079
 90            310           2.6488006    -999           2.6488006
 0             320           .09982146     3.4891069     5.1273293
 10            320           .14367844     3.3685568     5.0591147
 20            320           .31871859     2.9935333     4.869178
 30            320           .59709332     2.3322614     4.561065
 40            320           .94887071     1.3239175     4.1507413
 50            320           1.3435616    -.14033331     3.6749852
 60            320           1.739974     -2.2675139     3.1932478
 70            320           2.0834204    -5.5219654     2.7784908
 80            320           2.3174319    -11.381265     2.4989038
 90            320           2.4004651    -999           2.4004651
 0             330           1.9768539     2.2528215     5.1273293
 10            330           1.942287      2.1445444     5.054893
 20            330           1.8733386     1.7929936     4.8436518
 30            330           1.7947111     1.1627034     4.5004937
 40            330           1.7478149     .18832464     4.0479957
 50            330           1.7738201    -1.2432641     3.5324725
 60            330           1.8829068    -3.3424373     3.0231352
 70            330           2.0374985    -6.5757466     2.5974633
 80            330           2.1704564    -12.421998     2.3187435
 90            330           2.2224272    -999           2.2224272
 0             340           3.2958581     .49388525     5.1273293
 10            340           3.2231512     .41183408     5.0514095
 20            340           3.029552      .11215012     4.8216519
 30            340           2.7520899    -.45001923     4.4500027
 40            340           2.455877     -1.3508896     3.9671854
 50            340           2.2195303    -2.7131118     3.4291193
 60            340           2.0972526    -4.7538554     2.9124731
 70            340           2.0833408    -7.9436909     2.4948171
 80            340           2.1193162    -13.763376     2.229971
 90            340           2.1403108    -999           2.1403108
 0             350           4.2063855    -2.0605203     5.1273293
 10            350           4.1149041    -2.0809663     5.0495114
 20            350           3.8563455    -2.258695      4.8067211
 30            350           3.471308     -2.6662677     4.4172636
 40            350           3.0324481    -3.4079159     3.9207786
 50            350           2.6337535    -4.6268033     3.38158
 60            350           2.3543256    -6.5516944     2.8799051
 70            350           2.2149027    -9.6580569     2.4882711
 80            350           2.1730654    -15.427824     2.2478736
 90            350           2.1681434    -999           2.1681434
 0             360           4.787135     -6.1022309     5.1273293
 10            360           4.6886136    -5.9295331     5.0498429
 20            360           4.4009387    -5.7491216     4.801436
 30            360           3.9669965    -5.751105      4.4073201
 40            360           3.4624777    -6.1224748     3.9158185
 50            360           2.985995     -7.0420688     3.3973781
 60            360           2.625515     -8.7450071     2.9312572
 70            360           2.4151576    -11.701157     2.5803041
 80            360           2.3255427    -17.384638     2.3717228
 90            360           2.3039066    -999           2.3039066
