                   ****************************************
                     MINI-NUMERICAL ELECTROMAGNETICS CODE
                                   MININEC
                   ****************************************

FREQUENCY (MHZ): 450
    WAVE LENGTH =  .666222  METERS

ENVIRONMENT (+1 FOR FREE SPACE, -1 FOR GROUND PLANE): -1
 NUMBER OF MEDIA (0 FOR PERFECTLY CONDUCTING GROUND):  0

NO. OF GEO-OBJECTS: 4

WIRE NO. 1
            COORDINATES                                 END         NO. OF
   X             Y             Z          RADIUS     CONNECTION     SEGMENTS
 .1125         0             0                         -1
 .035361       .106798       .029866       .00127       0              2

WIRE NO. 3
            COORDINATES                                 END         NO. OF
   X             Y             Z          RADIUS     CONNECTION     SEGMENTS
 .035361       .106798       .029866                    1
-.033866       .107281       .0448         .00127       0              1

WIRE NO. 4
            COORDINATES                                 END         NO. OF
   X             Y             Z          RADIUS     CONNECTION     SEGMENTS
-.033866       .107281       .0448                      2
-.09027        .067138       .059733       .00127       0              1

WIRE NO. 5
            COORDINATES                                 END         NO. OF
   X             Y             Z          RADIUS     CONNECTION     SEGMENTS
-.09027        .067138       .059733                    3
-.112489       .00157        .074666       .00127       0              1

                  **** ANTENNA GEOMETRY ****

WIRE NO.  1 COORDINATES                                 CONNECTION PULSE
X             Y             Z             RADIUS        END1 END2  NO.
 .1125         0             0             .00127       -1    1   1
 .07393        .053399       .014933       .00127        1    0   2

WIRE NO.  3 COORDINATES                                 CONNECTION PULSE
X             Y             Z             RADIUS        END1 END2  NO.
 .035361       .106798       .029866       .00127        1    0   3

WIRE NO.  4 COORDINATES                                 CONNECTION PULSE
X             Y             Z             RADIUS        END1 END2  NO.
-.033866       .107281       .0448         .00127        2    0   4

WIRE NO.  5 COORDINATES                                 CONNECTION PULSE
X             Y             Z             RADIUS        END1 END2  NO.
-.09027        .067138       .059733       .00127        3    0   5

NO. OF SOURCES :  1
PULSE NO., VOLTAGE MAGNITUDE, PHASE (DEGREES):  1 , 1 , 0
NUMBER OF LOADS 0

********************    SOURCE DATA     ********************
PULSE  1      VOLTAGE = ( 1 , 0 J)
              CURRENT = (-1.626812E-05 , -5.417128E-03 J)
              IMPEDANCE = (-.554364  ,  184.598  J)
              POWER = -8.134059E-06  WATTS

********************    CURRENT DATA    ********************

WIRE NO.  1 :
PULSE         REAL          IMAGINARY     MAGNITUDE     PHASE
 NO.          (AMPS)        (AMPS)        (AMPS)        (DEGREES)
 1            -1.626812E-05 -5.417128E-03  5.417152E-03 -90.17206 
 2             2.729698E-05  1.341929E-03  1.342206E-03  88.83467 
J              1.793190E-04  2.202675E-03  2.209962E-03  85.34583 
WIRE NO.  3 :
PULSE         REAL          IMAGINARY     MAGNITUDE     PHASE
 NO.          (AMPS)        (AMPS)        (AMPS)        (DEGREES)
J              1.793190E-04  2.202675E-03  2.209962E-03  85.34583 
J              2.407519E-04  2.347377E-03  2.359690E-03  84.1441  
WIRE NO.  4 :
PULSE         REAL          IMAGINARY     MAGNITUDE     PHASE
 NO.          (AMPS)        (AMPS)        (AMPS)        (DEGREES)
J              2.407519E-04  2.347377E-03  2.359690E-03  84.1441  
J              1.763041E-04  1.539726E-03  1.549787E-03  83.46788 
WIRE NO.  5 :
PULSE         REAL          IMAGINARY     MAGNITUDE     PHASE
 NO.          (AMPS)        (AMPS)        (AMPS)        (DEGREES)
J              1.763041E-04  1.539726E-03  1.549787E-03  83.46788 
E              0             0             0             0

********************     FAR FIELD      ********************

ZENITH ANGLE : INITIAL,INCREMENT,NUMBER: 0 , 10 , 10
AZIMUTH ANGLE: INITIAL,INCREMENT,NUMBER: 0 , 10 , 37

********************    PATTERN DATA    ********************
ZENITH        AZIMUTH       VERTICAL      HORIZONTAL    TOTAL
 ANGLE         ANGLE        PATTERN (DB)  PATTERN (DB)  PATTERN (DB)
 0             0            -999          -999          -999     
 10            0            -999          -999          -999     
 20            0            -999          -999          -999     
 30            0            -999          -999          -999     
 40            0            -999          -999          -999     
 50            0            -999          -999          -999     
 60            0            -999          -999          -999     
 70            0            -999          -999          -999     
 80            0            -999          -999          -999     
 90            0            -999          -999          -999     
 0             10           -999          -999          -999     
 10            10           -999          -999          -999     
 20            10           -999          -999          -999     
 30            10           -999          -999          -999     
 40            10           -999          -999          -999     
 50            10           -999          -999          -999     
 60            10           -999          -999          -999     
 70            10           -999          -999          -999     
 80            10           -999          -999          -999     
 90            10           -999          -999          -999     
 0             20           -999          -999          -999     
 10            20           -999          -999          -999     
 20            20           -999          -999          -999     
 30            20           -999          -999          -999     
 40            20           -999          -999          -999     
 50            20           -999          -999          -999     
 60            20           -999          -999          -999     
 70            20           -999          -999          -999     
 80            20           -999          -999          -999     
 90            20           -999          -999          -999     
 0             30           -999          -999          -999     
 10            30           -999          -999          -999     
 20            30           -999          -999          -999     
 30            30           -999          -999          -999     
 40            30           -999          -999          -999     
 50            30           -999          -999          -999     
 60            30           -999          -999          -999     
 70            30           -999          -999          -999     
 80            30           -999          -999          -999     
 90            30           -999          -999          -999     
 0             40           -999          -999          -999     
 10            40           -999          -999          -999     
 20            40           -999          -999          -999     
 30            40           -999          -999          -999     
 40            40           -999          -999          -999     
 50            40           -999          -999          -999     
 60            40           -999          -999          -999     
 70            40           -999          -999          -999     
 80            40           -999          -999          -999     
 90            40           -999          -999          -999     
 0             50           -999          -999          -999     
 10            50           -999          -999          -999     
 20            50           -999          -999          -999     
 30            50           -999          -999          -999     
 40            50           -999          -999          -999     
 50            50           -999          -999          -999     
 60            50           -999          -999          -999     
 70            50           -999          -999          -999     
 80            50           -999          -999          -999     
 90            50           -999          -999          -999     
 0             60           -999          -999          -999     
 10            60           -999          -999          -999     
 20            60           -999          -999          -999     
 30            60           -999          -999          -999     
 40            60           -999          -999          -999     
 50            60           -999          -999          -999     
 60            60           -999          -999          -999     
 70            60           -999          -999          -999     
 80            60           -999          -999          -999     
 90            60           -999          -999          -999     
 0             70           -999          -999          -999     
 10            70           -999          -999          -999     
 20            70           -999          -999          -999     
 30            70           -999          -999          -999     
 40            70           -999          -999          -999     
 50            70           -999          -999          -999     
 60            70           -999          -999          -999     
 70            70           -999          -999          -999     
 80            70           -999          -999          -999     
 90            70           -999          -999          -999     
 0             80           -999          -999          -999     
 10            80           -999          -999          -999     
 20            80           -999          -999          -999     
 30            80           -999          -999          -999     
 40            80           -999          -999          -999     
 50            80           -999          -999          -999     
 60            80           -999          -999          -999     
 70            80           -999          -999          -999     
 80            80           -999          -999          -999     
 90            80           -999          -999          -999     
 0             90           -999          -999          -999     
 10            90           -999          -999          -999     
 20            90           -999          -999          -999     
 30            90           -999          -999          -999     
 40            90           -999          -999          -999     
 50            90           -999          -999          -999     
 60            90           -999          -999          -999     
 70            90           -999          -999          -999     
 80            90           -999          -999          -999     
 90            90           -999          -999          -999     
 0             100          -999          -999          -999     
 10            100          -999          -999          -999     
 20            100          -999          -999          -999     
 30            100          -999          -999          -999     
 40            100          -999          -999          -999     
 50            100          -999          -999          -999     
 60            100          -999          -999          -999     
 70            100          -999          -999          -999     
 80            100          -999          -999          -999     
 90            100          -999          -999          -999     
 0             110          -999          -999          -999     
 10            110          -999          -999          -999     
 20            110          -999          -999          -999     
 30            110          -999          -999          -999     
 40            110          -999          -999          -999     
 50            110          -999          -999          -999     
 60            110          -999          -999          -999     
 70            110          -999          -999          -999     
 80            110          -999          -999          -999     
 90            110          -999          -999          -999     
 0             120          -999          -999          -999     
 10            120          -999          -999          -999     
 20            120          -999          -999          -999     
 30            120          -999          -999          -999     
 40            120          -999          -999          -999     
 50            120          -999          -999          -999     
 60            120          -999          -999          -999     
 70            120          -999          -999          -999     
 80            120          -999          -999          -999     
 90            120          -999          -999          -999     
 0             130          -999          -999          -999     
 10            130          -999          -999          -999     
 20            130          -999          -999          -999     
 30            130          -999          -999          -999     
 40            130          -999          -999          -999     
 50            130          -999          -999          -999     
 60            130          -999          -999          -999     
 70            130          -999          -999          -999     
 80            130          -999          -999          -999     
 90            130          -999          -999          -999     
 0             140          -999          -999          -999     
 10            140          -999          -999          -999     
 20            140          -999          -999          -999     
 30            140          -999          -999          -999     
 40            140          -999          -999          -999     
 50            140          -999          -999          -999     
 60            140          -999          -999          -999     
 70            140          -999          -999          -999     
 80            140          -999          -999          -999     
 90            140          -999          -999          -999     
 0             150          -999          -999          -999     
 10            150          -999          -999          -999     
 20            150          -999          -999          -999     
 30            150          -999          -999          -999     
 40            150          -999          -999          -999     
 50            150          -999          -999          -999     
 60            150          -999          -999          -999     
 70            150          -999          -999          -999     
 80            150          -999          -999          -999     
 90            150          -999          -999          -999     
 0             160          -999          -999          -999     
 10            160          -999          -999          -999     
 20            160          -999          -999          -999     
 30            160          -999          -999          -999     
 40            160          -999          -999          -999     
 50            160          -999          -999          -999     
 60            160          -999          -999          -999     
 70            160          -999          -999          -999     
 80            160          -999          -999          -999     
 90            160          -999          -999          -999     
 0             170          -999          -999          -999     
 10            170          -999          -999          -999     
 20            170          -999          -999          -999     
 30            170          -999          -999          -999     
 40            170          -999          -999          -999     
 50            170          -999          -999          -999     
 60            170          -999          -999          -999     
 70            170          -999          -999          -999     
 80            170          -999          -999          -999     
 90            170          -999          -999          -999     
 0             180          -999          -999          -999     
 10            180          -999          -999          -999     
 20            180          -999          -999          -999     
 30            180          -999          -999          -999     
 40            180          -999          -999          -999     
 50            180          -999          -999          -999     
 60            180          -999          -999          -999     
 70            180          -999          -999          -999     
 80            180          -999          -999          -999     
 90            180          -999          -999          -999     
 0             190          -999          -999          -999     
 10            190          -999          -999          -999     
 20            190          -999          -999          -999     
 30            190          -999          -999          -999     
 40            190          -999          -999          -999     
 50            190          -999          -999          -999     
 60            190          -999          -999          -999     
 70            190          -999          -999          -999     
 80            190          -999          -999          -999     
 90            190          -999          -999          -999     
 0             200          -999          -999          -999     
 10            200          -999          -999          -999     
 20            200          -999          -999          -999     
 30            200          -999          -999          -999     
 40            200          -999          -999          -999     
 50            200          -999          -999          -999     
 60            200          -999          -999          -999     
 70            200          -999          -999          -999     
 80            200          -999          -999          -999     
 90            200          -999          -999          -999     
 0             210          -999          -999          -999     
 10            210          -999          -999          -999     
 20            210          -999          -999          -999     
 30            210          -999          -999          -999     
 40            210          -999          -999          -999     
 50            210          -999          -999          -999     
 60            210          -999          -999          -999     
 70            210          -999          -999          -999     
 80            210          -999          -999          -999     
 90            210          -999          -999          -999     
 0             220          -999          -999          -999     
 10            220          -999          -999          -999     
 20            220          -999          -999          -999     
 30            220          -999          -999          -999     
 40            220          -999          -999          -999     
 50            220          -999          -999          -999     
 60            220          -999          -999          -999     
 70            220          -999          -999          -999     
 80            220          -999          -999          -999     
 90            220          -999          -999          -999     
 0             230          -999          -999          -999     
 10            230          -999          -999          -999     
 20            230          -999          -999          -999     
 30            230          -999          -999          -999     
 40            230          -999          -999          -999     
 50            230          -999          -999          -999     
 60            230          -999          -999          -999     
 70            230          -999          -999          -999     
 80            230          -999          -999          -999     
 90            230          -999          -999          -999     
 0             240          -999          -999          -999     
 10            240          -999          -999          -999     
 20            240          -999          -999          -999     
 30            240          -999          -999          -999     
 40            240          -999          -999          -999     
 50            240          -999          -999          -999     
 60            240          -999          -999          -999     
 70            240          -999          -999          -999     
 80            240          -999          -999          -999     
 90            240          -999          -999          -999     
 0             250          -999          -999          -999     
 10            250          -999          -999          -999     
 20            250          -999          -999          -999     
 30            250          -999          -999          -999     
 40            250          -999          -999          -999     
 50            250          -999          -999          -999     
 60            250          -999          -999          -999     
 70            250          -999          -999          -999     
 80            250          -999          -999          -999     
 90            250          -999          -999          -999     
 0             260          -999          -999          -999     
 10            260          -999          -999          -999     
 20            260          -999          -999          -999     
 30            260          -999          -999          -999     
 40            260          -999          -999          -999     
 50            260          -999          -999          -999     
 60            260          -999          -999          -999     
 70            260          -999          -999          -999     
 80            260          -999          -999          -999     
 90            260          -999          -999          -999     
 0             270          -999          -999          -999     
 10            270          -999          -999          -999     
 20            270          -999          -999          -999     
 30            270          -999          -999          -999     
 40            270          -999          -999          -999     
 50            270          -999          -999          -999     
 60            270          -999          -999          -999     
 70            270          -999          -999          -999     
 80            270          -999          -999          -999     
 90            270          -999          -999          -999     
 0             280          -999          -999          -999     
 10            280          -999          -999          -999     
 20            280          -999          -999          -999     
 30            280          -999          -999          -999     
 40            280          -999          -999          -999     
 50            280          -999          -999          -999     
 60            280          -999          -999          -999     
 70            280          -999          -999          -999     
 80            280          -999          -999          -999     
 90            280          -999          -999          -999     
 0             290          -999          -999          -999     
 10            290          -999          -999          -999     
 20            290          -999          -999          -999     
 30            290          -999          -999          -999     
 40            290          -999          -999          -999     
 50            290          -999          -999          -999     
 60            290          -999          -999          -999     
 70            290          -999          -999          -999     
 80            290          -999          -999          -999     
 90            290          -999          -999          -999     
 0             300          -999          -999          -999     
 10            300          -999          -999          -999     
 20            300          -999          -999          -999     
 30            300          -999          -999          -999     
 40            300          -999          -999          -999     
 50            300          -999          -999          -999     
 60            300          -999          -999          -999     
 70            300          -999          -999          -999     
 80            300          -999          -999          -999     
 90            300          -999          -999          -999     
 0             310          -999          -999          -999     
 10            310          -999          -999          -999     
 20            310          -999          -999          -999     
 30            310          -999          -999          -999     
 40            310          -999          -999          -999     
 50            310          -999          -999          -999     
 60            310          -999          -999          -999     
 70            310          -999          -999          -999     
 80            310          -999          -999          -999     
 90            310          -999          -999          -999     
 0             320          -999          -999          -999     
 10            320          -999          -999          -999     
 20            320          -999          -999          -999     
 30            320          -999          -999          -999     
 40            320          -999          -999          -999     
 50            320          -999          -999          -999     
 60            320          -999          -999          -999     
 70            320          -999          -999          -999     
 80            320          -999          -999          -999     
 90            320          -999          -999          -999     
 0             330          -999          -999          -999     
 10            330          -999          -999          -999     
 20            330          -999          -999          -999     
 30            330          -999          -999          -999     
 40            330          -999          -999          -999     
 50            330          -999          -999          -999     
 60            330          -999          -999          -999     
 70            330          -999          -999          -999     
 80            330          -999          -999          -999     
 90            330          -999          -999          -999     
 0             340          -999          -999          -999     
 10            340          -999          -999          -999     
 20            340          -999          -999          -999     
 30            340          -999          -999          -999     
 40            340          -999          -999          -999     
 50            340          -999          -999          -999     
 60            340          -999          -999          -999     
 70            340          -999          -999          -999     
 80            340          -999          -999          -999     
 90            340          -999          -999          -999     
 0             350          -999          -999          -999     
 10            350          -999          -999          -999     
 20            350          -999          -999          -999     
 30            350          -999          -999          -999     
 40            350          -999          -999          -999     
 50            350          -999          -999          -999     
 60            350          -999          -999          -999     
 70            350          -999          -999          -999     
 80            350          -999          -999          -999     
 90            350          -999          -999          -999     
 0             360          -999          -999          -999     
 10            360          -999          -999          -999     
 20            360          -999          -999          -999     
 30            360          -999          -999          -999     
 40            360          -999          -999          -999     
 50            360          -999          -999          -999     
 60            360          -999          -999          -999     
 70            360          -999          -999          -999     
 80            360          -999          -999          -999     
 90            360          -999          -999          -999     
